/*--------------------------------*- C++ -*----------------------------------*\
  =========                 |
  \\      /  F ield         | OpenFOAM: The Open Source CFD Toolbox
   \\    /   O peration     | Website:  https://openfoam.org
    \\  /    A nd           | Version:  7
     \\/     M anipulation  |
\*---------------------------------------------------------------------------*/
FoamFile
{
    version     2.0;
    format      ascii;
    class       featureEdgeMesh;
    location    "constant/triSurface";
    object      caja.eMesh;
}
// * * * * * * * * * * * * * * * * * * * * * * * * * * * * * * * * * * * * * //


// points:

112
(
(0 0.6 0.9)
(0 0.6 0)
(0 0 0)
(0 0 0.9)
(0.6 0.6 0.9)
(0.6 0 0.9)
(0.6 0 0)
(0.6 0.6 0)
(0.6 0.3 -6.938894e-18)
(-0.5 0.3079058 0.8320751)
(-0.5 0.3 0.833035)
(-0.5 0.3153521 0.829251)
(-0.5 0.3219063 0.8247271)
(-0.5 0.3271873 0.818766)
(-0.5 0.3308883 0.8117144)
(-0.5 0.3327941 0.8039819)
(-0.5 0.3327941 0.7960181)
(-0.5 0.3308883 0.7882856)
(-0.5 0.3271873 0.781234)
(-0.5 0.3219063 0.7752729)
(-0.5 0.3153521 0.770749)
(-0.5 0.3079058 0.7679249)
(-0.5 0.3 0.766965)
(-0.5 0.2920942 0.7679249)
(-0.5 0.2846479 0.770749)
(-0.5 0.2780937 0.7752729)
(-0.5 0.2728127 0.781234)
(-0.5 0.2691117 0.7882856)
(-0.5 0.2672059 0.7960181)
(-0.5 0.2672059 0.8039819)
(-0.5 0.2691117 0.8117144)
(-0.5 0.2728127 0.818766)
(-0.5 0.2780937 0.8247271)
(-0.5 0.2846479 0.829251)
(-0.5 0.2920942 0.8320751)
(2.3 0.3 0.14004)
(2.3 0.31915 0.1377148)
(2.3 0.3371871 0.1308742)
(2.3 0.3530631 0.1199158)
(2.3 0.3658552 0.1054765)
(2.3 0.37482 0.08839548)
(2.3 0.3794366 0.06966535)
(2.3 0.3794366 0.05037465)
(2.3 0.37482 0.03164452)
(2.3 0.3658552 0.01456346)
(2.3 0.3530631 0.0001241699)
(2.3 0.3371871 -0.01083419)
(2.3 0.31915 -0.01767476)
(2.3 0.3 -0.02)
(2.3 0.28085 -0.01767476)
(2.3 0.2628129 -0.01083419)
(2.3 0.2469369 0.0001241699)
(2.3 0.2341448 0.01456346)
(2.3 0.22518 0.03164452)
(2.3 0.2205634 0.05037465)
(2.3 0.2205634 0.06966535)
(2.3 0.22518 0.08839548)
(2.3 0.2341448 0.1054765)
(2.3 0.2469369 0.1199158)
(2.3 0.2628129 0.1308742)
(2.3 0.28085 0.1377148)
(0 0.3 0.833035)
(0 0.3079058 0.8320751)
(0 0.3153521 0.829251)
(0 0.3219063 0.8247271)
(0 0.3271873 0.818766)
(0 0.3308883 0.8117144)
(0 0.3327941 0.8039819)
(0 0.3327941 0.7960181)
(0 0.3308883 0.7882856)
(0 0.3271873 0.781234)
(0 0.3219063 0.7752729)
(0 0.3153521 0.770749)
(0 0.3079058 0.7679249)
(0 0.3 0.766965)
(0 0.2920942 0.7679249)
(0 0.2846479 0.770749)
(0 0.2780937 0.7752729)
(0 0.2728127 0.781234)
(0 0.2691117 0.7882856)
(0 0.2672059 0.7960181)
(0 0.2672059 0.8039819)
(0 0.2691117 0.8117144)
(0 0.2728127 0.818766)
(0 0.2780937 0.8247271)
(0 0.2846479 0.829251)
(0 0.2920942 0.8320751)
(0.6 0.3530631 0.1399158)
(0.6 0.3658552 0.1254765)
(0.6 0.3371871 0.1508742)
(0.6 0.37482 0.1083955)
(0.6 0.31915 0.1577148)
(0.6 0.3794366 0.08966535)
(0.6 0.3 0.16004)
(0.6 0.3794366 0.07037465)
(0.6 0.28085 0.1577148)
(0.6 0.37482 0.05164452)
(0.6 0.2628129 0.1508742)
(0.6 0.3658552 0.03456346)
(0.6 0.2469369 0.1399158)
(0.6 0.3530631 0.02012417)
(0.6 0.3371871 0.009165809)
(0.6 0.31915 0.002325236)
(0.6 0.28085 0.002325236)
(0.6 0.2628129 0.009165809)
(0.6 0.2469369 0.02012417)
(0.6 0.2341448 0.03456346)
(0.6 0.22518 0.05164452)
(0.6 0.2205634 0.07037465)
(0.6 0.2205634 0.08966535)
(0.6 0.22518 0.1083955)
(0.6 0.2341448 0.1254765)
)


// edges:

117
(
(9 10)
(11 9)
(12 11)
(13 12)
(14 13)
(15 14)
(16 15)
(17 16)
(18 17)
(19 18)
(20 19)
(21 20)
(22 21)
(23 22)
(24 23)
(25 24)
(26 25)
(27 26)
(28 27)
(29 28)
(30 29)
(31 30)
(32 31)
(33 32)
(34 33)
(10 34)
(0 1)
(1 2)
(2 3)
(3 0)
(4 0)
(3 5)
(5 4)
(2 6)
(6 5)
(4 7)
(7 1)
(8 6)
(7 8)
(35 36)
(36 37)
(37 38)
(38 39)
(39 40)
(40 41)
(41 42)
(42 43)
(43 44)
(44 45)
(45 46)
(46 47)
(47 48)
(48 49)
(49 50)
(50 51)
(51 52)
(52 53)
(53 54)
(54 55)
(55 56)
(56 57)
(57 58)
(58 59)
(59 60)
(60 35)
(61 62)
(62 63)
(63 64)
(64 65)
(65 66)
(66 67)
(67 68)
(68 69)
(69 70)
(70 71)
(71 72)
(72 73)
(73 74)
(74 75)
(75 76)
(76 77)
(77 78)
(78 79)
(79 80)
(80 81)
(81 82)
(82 83)
(83 84)
(84 85)
(85 86)
(86 61)
(87 88)
(89 87)
(88 90)
(91 89)
(90 92)
(93 91)
(92 94)
(95 93)
(94 96)
(97 95)
(96 98)
(99 97)
(98 100)
(100 101)
(101 102)
(103 104)
(104 105)
(105 106)
(106 107)
(107 108)
(108 109)
(109 110)
(110 111)
(111 99)
(102 8)
(8 103)
)

// * * * * * * * * * * * * * * * * * * * * * * * * * * * * * * * * * * * * * //


// ************************************************************************* //
