/*--------------------------------*- C++ -*----------------------------------*\
  =========                 |
  \\      /  F ield         | OpenFOAM: The Open Source CFD Toolbox
   \\    /   O peration     | Website:  https://openfoam.org
    \\  /    A nd           | Version:  7
     \\/     M anipulation  |
\*---------------------------------------------------------------------------*/
FoamFile
{
    version     2.0;
    format      ascii;
    class       featureEdgeMesh;
    location    "constant/triSurface";
    object      inlet.eMesh;
}
// * * * * * * * * * * * * * * * * * * * * * * * * * * * * * * * * * * * * * //


// points:

70
(
(-0.5 0.3 0.833035)
(-0.5 0.3029612 0.832902)
(-0.5 0.3058986 0.8325041)
(-0.5 0.3087885 0.8318445)
(-0.5 0.3116077 0.8309285)
(-0.5 0.3143333 0.8297635)
(-0.5 0.3169436 0.8283589)
(-0.5 0.3194175 0.8267259)
(-0.5 0.321735 0.8248777)
(-0.5 0.3238775 0.8228293)
(-0.5 0.3258278 0.820597)
(-0.5 0.3275701 0.8181989)
(-0.5 0.3290905 0.8156543)
(-0.5 0.3303766 0.8129836)
(-0.5 0.3314182 0.8102084)
(-0.5 0.3322067 0.807351)
(-0.5 0.332736 0.8044344)
(-0.5 0.3330017 0.8014821)
(-0.5 0.3330017 0.7985179)
(-0.5 0.332736 0.7955656)
(-0.5 0.3322067 0.792649)
(-0.5 0.3314182 0.7897916)
(-0.5 0.3303766 0.7870164)
(-0.5 0.3290905 0.7843457)
(-0.5 0.3275701 0.7818011)
(-0.5 0.3258278 0.779403)
(-0.5 0.3238775 0.7771707)
(-0.5 0.321735 0.7751223)
(-0.5 0.3194175 0.7732741)
(-0.5 0.3169436 0.7716411)
(-0.5 0.3143333 0.7702365)
(-0.5 0.3116077 0.7690715)
(-0.5 0.3087885 0.7681555)
(-0.5 0.3058986 0.7674959)
(-0.5 0.3029612 0.767098)
(-0.5 0.3 0.766965)
(-0.5 0.2970388 0.767098)
(-0.5 0.2941014 0.7674959)
(-0.5 0.2912115 0.7681555)
(-0.5 0.2883923 0.7690715)
(-0.5 0.2856667 0.7702365)
(-0.5 0.2830564 0.7716411)
(-0.5 0.2805825 0.7732741)
(-0.5 0.278265 0.7751223)
(-0.5 0.2761225 0.7771707)
(-0.5 0.2741722 0.779403)
(-0.5 0.2724299 0.7818011)
(-0.5 0.2709095 0.7843457)
(-0.5 0.2696234 0.7870164)
(-0.5 0.2685818 0.7897916)
(-0.5 0.2677933 0.792649)
(-0.5 0.267264 0.7955656)
(-0.5 0.2669983 0.7985179)
(-0.5 0.2669983 0.8014821)
(-0.5 0.267264 0.8044344)
(-0.5 0.2677933 0.807351)
(-0.5 0.2685818 0.8102084)
(-0.5 0.2696234 0.8129836)
(-0.5 0.2709095 0.8156543)
(-0.5 0.2724299 0.8181989)
(-0.5 0.2741722 0.820597)
(-0.5 0.2761225 0.8228293)
(-0.5 0.278265 0.8248777)
(-0.5 0.2805825 0.8267259)
(-0.5 0.2830564 0.8283589)
(-0.5 0.2856667 0.8297635)
(-0.5 0.2883923 0.8309285)
(-0.5 0.2912115 0.8318445)
(-0.5 0.2941014 0.8325041)
(-0.5 0.2970388 0.832902)
)


// edges:

70
(
(0 1)
(1 2)
(2 3)
(3 4)
(4 5)
(5 6)
(6 7)
(7 8)
(8 9)
(9 10)
(10 11)
(11 12)
(12 13)
(13 14)
(14 15)
(15 16)
(16 17)
(17 18)
(18 19)
(19 20)
(20 21)
(21 22)
(22 23)
(23 24)
(24 25)
(25 26)
(26 27)
(27 28)
(28 29)
(29 30)
(30 31)
(31 32)
(32 33)
(33 34)
(34 35)
(35 36)
(36 37)
(37 38)
(38 39)
(39 40)
(40 41)
(41 42)
(42 43)
(43 44)
(44 45)
(45 46)
(46 47)
(47 48)
(48 49)
(49 50)
(50 51)
(51 52)
(52 53)
(53 54)
(54 55)
(55 56)
(56 57)
(57 58)
(58 59)
(59 60)
(60 61)
(61 62)
(62 63)
(63 64)
(64 65)
(65 66)
(66 67)
(67 68)
(68 69)
(69 0)
)

// * * * * * * * * * * * * * * * * * * * * * * * * * * * * * * * * * * * * * //


// ************************************************************************* //
