/*--------------------------------*- C++ -*----------------------------------*\
  =========                 |
  \\      /  F ield         | OpenFOAM: The Open Source CFD Toolbox
   \\    /   O peration     | Website:  https://openfoam.org
    \\  /    A nd           | Version:  7
     \\/     M anipulation  |
\*---------------------------------------------------------------------------*/
FoamFile
{
    version     2.0;
    format      ascii;
    class       featureEdgeMesh;
    location    "constant/triSurface";
    object      pipe2.eMesh;
}
// * * * * * * * * * * * * * * * * * * * * * * * * * * * * * * * * * * * * * //


// points:

52
(
(2.3 0.3 0.14004)
(2.3 0.31915 0.1377148)
(0.6 0.31915 0.1577148)
(0.6 0.3 0.16004)
(2.3 0.3371871 0.1308742)
(0.6 0.3371871 0.1508742)
(0.6 0.3530631 0.1399158)
(2.3 0.3530631 0.1199158)
(2.3 0.3658552 0.1054765)
(0.6 0.3658552 0.1254765)
(0.6 0.37482 0.1083955)
(2.3 0.37482 0.08839548)
(2.3 0.3794366 0.06966535)
(0.6 0.3794366 0.08966535)
(0.6 0.3794366 0.07037465)
(2.3 0.3794366 0.05037465)
(2.3 0.37482 0.03164452)
(0.6 0.37482 0.05164452)
(0.6 0.3658552 0.03456346)
(2.3 0.3658552 0.01456346)
(0.6 0.3530631 0.02012417)
(2.3 0.3530631 0.0001241699)
(0.6 0.3371871 0.009165809)
(2.3 0.3371871 -0.01083419)
(2.3 0.31915 -0.01767476)
(0.6 0.31915 0.002325236)
(2.3 0.3 -0.02)
(0.6 0.3 -6.938894e-18)
(0.6 0.28085 0.002325236)
(2.3 0.28085 -0.01767476)
(0.6 0.2628129 0.009165809)
(2.3 0.2628129 -0.01083419)
(0.6 0.2469369 0.02012417)
(2.3 0.2469369 0.0001241699)
(0.6 0.2341448 0.03456346)
(2.3 0.2341448 0.01456346)
(0.6 0.22518 0.05164452)
(2.3 0.22518 0.03164452)
(0.6 0.2205634 0.07037465)
(2.3 0.2205634 0.05037465)
(0.6 0.2205634 0.08966535)
(2.3 0.2205634 0.06966535)
(0.6 0.22518 0.1083955)
(2.3 0.22518 0.08839548)
(0.6 0.2341448 0.1254765)
(2.3 0.2341448 0.1054765)
(0.6 0.2469369 0.1399158)
(2.3 0.2469369 0.1199158)
(0.6 0.2628129 0.1508742)
(2.3 0.2628129 0.1308742)
(0.6 0.28085 0.1577148)
(2.3 0.28085 0.1377148)
)


// edges:

52
(
(0 1)
(2 3)
(1 4)
(5 2)
(6 5)
(4 7)
(7 8)
(9 6)
(10 9)
(8 11)
(11 12)
(13 10)
(14 13)
(12 15)
(15 16)
(17 14)
(18 17)
(16 19)
(20 18)
(19 21)
(22 20)
(21 23)
(23 24)
(25 22)
(24 26)
(27 25)
(28 27)
(26 29)
(30 28)
(29 31)
(32 30)
(31 33)
(34 32)
(33 35)
(36 34)
(35 37)
(38 36)
(37 39)
(40 38)
(39 41)
(42 40)
(41 43)
(44 42)
(43 45)
(46 44)
(45 47)
(48 46)
(47 49)
(50 48)
(49 51)
(3 50)
(51 0)
)

// * * * * * * * * * * * * * * * * * * * * * * * * * * * * * * * * * * * * * //


// ************************************************************************* //
