/*--------------------------------*- C++ -*----------------------------------*\
  =========                 |
  \\      /  F ield         | OpenFOAM: The Open Source CFD Toolbox
   \\    /   O peration     | Website:  https://openfoam.org
    \\  /    A nd           | Version:  7
     \\/     M anipulation  |
\*---------------------------------------------------------------------------*/
FoamFile
{
    version     2.0;
    format      ascii;
    class       featureEdgeMesh;
    location    "constant/triSurface";
    object      pipe1.eMesh;
}
// * * * * * * * * * * * * * * * * * * * * * * * * * * * * * * * * * * * * * //


// points:

52
(
(-0.5 0.3079058 0.8320751)
(-0.5 0.3 0.833035)
(-0.5 0.3153521 0.829251)
(-0.5 0.3219063 0.8247271)
(-0.5 0.3271873 0.818766)
(-0.5 0.3308883 0.8117144)
(-0.5 0.3327941 0.8039819)
(-0.5 0.3327941 0.7960181)
(-0.5 0.3308883 0.7882856)
(-0.5 0.3271873 0.781234)
(-0.5 0.3219063 0.7752729)
(-0.5 0.3153521 0.770749)
(-0.5 0.3079058 0.7679249)
(-0.5 0.3 0.766965)
(-0.5 0.2920942 0.7679249)
(-0.5 0.2846479 0.770749)
(-0.5 0.2780937 0.7752729)
(-0.5 0.2728127 0.781234)
(-0.5 0.2691117 0.7882856)
(-0.5 0.2672059 0.7960181)
(-0.5 0.2672059 0.8039819)
(-0.5 0.2691117 0.8117144)
(-0.5 0.2728127 0.818766)
(-0.5 0.2780937 0.8247271)
(-0.5 0.2846479 0.829251)
(-0.5 0.2920942 0.8320751)
(0.333035 0.3 0.6)
(0.3320751 0.3079058 0.6)
(0.329251 0.3153521 0.6)
(0.3247271 0.3219063 0.6)
(0.318766 0.3271873 0.6)
(0.3117144 0.3308883 0.6)
(0.3039819 0.3327941 0.6)
(0.2960181 0.3327941 0.6)
(0.2882856 0.3308883 0.6)
(0.281234 0.3271873 0.6)
(0.2752729 0.3219063 0.6)
(0.270749 0.3153521 0.6)
(0.2679249 0.3079058 0.6)
(0.266965 0.3 0.6)
(0.2679249 0.2920942 0.6)
(0.270749 0.2846479 0.6)
(0.2752729 0.2780937 0.6)
(0.281234 0.2728127 0.6)
(0.2882856 0.2691117 0.6)
(0.2960181 0.2672059 0.6)
(0.3039819 0.2672059 0.6)
(0.3117144 0.2691117 0.6)
(0.318766 0.2728127 0.6)
(0.3247271 0.2780937 0.6)
(0.329251 0.2846479 0.6)
(0.3320751 0.2920942 0.6)
)


// edges:

52
(
(0 1)
(2 0)
(3 2)
(4 3)
(5 4)
(6 5)
(7 6)
(8 7)
(9 8)
(10 9)
(11 10)
(12 11)
(13 12)
(14 13)
(15 14)
(16 15)
(17 16)
(18 17)
(19 18)
(20 19)
(21 20)
(22 21)
(23 22)
(24 23)
(25 24)
(1 25)
(26 27)
(27 28)
(28 29)
(29 30)
(30 31)
(31 32)
(32 33)
(33 34)
(34 35)
(35 36)
(36 37)
(37 38)
(38 39)
(39 40)
(40 41)
(41 42)
(42 43)
(43 44)
(44 45)
(45 46)
(46 47)
(47 48)
(48 49)
(49 50)
(50 51)
(51 26)
)

// * * * * * * * * * * * * * * * * * * * * * * * * * * * * * * * * * * * * * //


// ************************************************************************* //
