/*--------------------------------*- C++ -*----------------------------------*\
  =========                 |
  \\      /  F ield         | OpenFOAM: The Open Source CFD Toolbox
   \\    /   O peration     | Website:  https://openfoam.org
    \\  /    A nd           | Version:  7
     \\/     M anipulation  |
\*---------------------------------------------------------------------------*/
FoamFile
{
    version     2.0;
    format      ascii;
    class       extendedFeatureEdgeMesh;
    location    "constant/extendedFeatureEdgeMesh";
    object      caja.extendedFeatureEdgeMesh;
}
// * * * * * * * * * * * * * * * * * * * * * * * * * * * * * * * * * * * * * //

// points

112
(
(0 0.6 0.9)
(0 0.6 0)
(0 0 0)
(0 0 0.9)
(0.6 0.6 0.9)
(0.6 0 0.9)
(0.6 0 0)
(0.6 0.6 0)
(0.6 0.3 -6.938894e-18)
(-0.5 0.3079058 0.8320751)
(-0.5 0.3 0.833035)
(-0.5 0.3153521 0.829251)
(-0.5 0.3219063 0.8247271)
(-0.5 0.3271873 0.818766)
(-0.5 0.3308883 0.8117144)
(-0.5 0.3327941 0.8039819)
(-0.5 0.3327941 0.7960181)
(-0.5 0.3308883 0.7882856)
(-0.5 0.3271873 0.781234)
(-0.5 0.3219063 0.7752729)
(-0.5 0.3153521 0.770749)
(-0.5 0.3079058 0.7679249)
(-0.5 0.3 0.766965)
(-0.5 0.2920942 0.7679249)
(-0.5 0.2846479 0.770749)
(-0.5 0.2780937 0.7752729)
(-0.5 0.2728127 0.781234)
(-0.5 0.2691117 0.7882856)
(-0.5 0.2672059 0.7960181)
(-0.5 0.2672059 0.8039819)
(-0.5 0.2691117 0.8117144)
(-0.5 0.2728127 0.818766)
(-0.5 0.2780937 0.8247271)
(-0.5 0.2846479 0.829251)
(-0.5 0.2920942 0.8320751)
(2.3 0.3 0.14004)
(2.3 0.31915 0.1377148)
(2.3 0.3371871 0.1308742)
(2.3 0.3530631 0.1199158)
(2.3 0.3658552 0.1054765)
(2.3 0.37482 0.08839548)
(2.3 0.3794366 0.06966535)
(2.3 0.3794366 0.05037465)
(2.3 0.37482 0.03164452)
(2.3 0.3658552 0.01456346)
(2.3 0.3530631 0.0001241699)
(2.3 0.3371871 -0.01083419)
(2.3 0.31915 -0.01767476)
(2.3 0.3 -0.02)
(2.3 0.28085 -0.01767476)
(2.3 0.2628129 -0.01083419)
(2.3 0.2469369 0.0001241699)
(2.3 0.2341448 0.01456346)
(2.3 0.22518 0.03164452)
(2.3 0.2205634 0.05037465)
(2.3 0.2205634 0.06966535)
(2.3 0.22518 0.08839548)
(2.3 0.2341448 0.1054765)
(2.3 0.2469369 0.1199158)
(2.3 0.2628129 0.1308742)
(2.3 0.28085 0.1377148)
(0 0.3 0.833035)
(0 0.3079058 0.8320751)
(0 0.3153521 0.829251)
(0 0.3219063 0.8247271)
(0 0.3271873 0.818766)
(0 0.3308883 0.8117144)
(0 0.3327941 0.8039819)
(0 0.3327941 0.7960181)
(0 0.3308883 0.7882856)
(0 0.3271873 0.781234)
(0 0.3219063 0.7752729)
(0 0.3153521 0.770749)
(0 0.3079058 0.7679249)
(0 0.3 0.766965)
(0 0.2920942 0.7679249)
(0 0.2846479 0.770749)
(0 0.2780937 0.7752729)
(0 0.2728127 0.781234)
(0 0.2691117 0.7882856)
(0 0.2672059 0.7960181)
(0 0.2672059 0.8039819)
(0 0.2691117 0.8117144)
(0 0.2728127 0.818766)
(0 0.2780937 0.8247271)
(0 0.2846479 0.829251)
(0 0.2920942 0.8320751)
(0.6 0.3530631 0.1399158)
(0.6 0.3658552 0.1254765)
(0.6 0.3371871 0.1508742)
(0.6 0.37482 0.1083955)
(0.6 0.31915 0.1577148)
(0.6 0.3794366 0.08966535)
(0.6 0.3 0.16004)
(0.6 0.3794366 0.07037465)
(0.6 0.28085 0.1577148)
(0.6 0.37482 0.05164452)
(0.6 0.2628129 0.1508742)
(0.6 0.3658552 0.03456346)
(0.6 0.2469369 0.1399158)
(0.6 0.3530631 0.02012417)
(0.6 0.3371871 0.009165809)
(0.6 0.31915 0.002325236)
(0.6 0.28085 0.002325236)
(0.6 0.2628129 0.009165809)
(0.6 0.2469369 0.02012417)
(0.6 0.2341448 0.03456346)
(0.6 0.22518 0.05164452)
(0.6 0.2205634 0.07037465)
(0.6 0.2205634 0.08966535)
(0.6 0.22518 0.1083955)
(0.6 0.2341448 0.1254765)
)

// edges

117
(
(9 10)
(11 9)
(12 11)
(13 12)
(14 13)
(15 14)
(16 15)
(17 16)
(18 17)
(19 18)
(20 19)
(21 20)
(22 21)
(23 22)
(24 23)
(25 24)
(26 25)
(27 26)
(28 27)
(29 28)
(30 29)
(31 30)
(32 31)
(33 32)
(34 33)
(10 34)
(0 1)
(1 2)
(2 3)
(3 0)
(4 0)
(3 5)
(5 4)
(2 6)
(6 5)
(4 7)
(7 1)
(8 6)
(7 8)
(35 36)
(36 37)
(37 38)
(38 39)
(39 40)
(40 41)
(41 42)
(42 43)
(43 44)
(44 45)
(45 46)
(46 47)
(47 48)
(48 49)
(49 50)
(50 51)
(51 52)
(52 53)
(53 54)
(54 55)
(55 56)
(56 57)
(57 58)
(58 59)
(59 60)
(60 35)
(61 62)
(62 63)
(63 64)
(64 65)
(65 66)
(66 67)
(67 68)
(68 69)
(69 70)
(70 71)
(71 72)
(72 73)
(73 74)
(74 75)
(75 76)
(76 77)
(77 78)
(78 79)
(79 80)
(80 81)
(81 82)
(82 83)
(83 84)
(84 85)
(85 86)
(86 61)
(87 88)
(89 87)
(88 90)
(91 89)
(90 92)
(93 91)
(92 94)
(95 93)
(94 96)
(97 95)
(96 98)
(99 97)
(98 100)
(100 101)
(101 102)
(103 104)
(104 105)
(105 106)
(106 107)
(107 108)
(108 109)
(109 110)
(110 111)
(111 99)
(102 8)
(8 103)
)

// concaveStart mixedStart nonFeatureStart
8 8 9
// internalStart flatStart openStart multipleStart
65 117 117 117
// normals

220
(
(0 0.120529 0.9927098)
(-1 0 0)
(0 0.3546171 0.9350116)
(-1 0 0)
(0 0.5680516 0.822993)
(0 0.7485164 0.6631163)
(-1 0 0)
(0 0.8854538 0.4647274)
(0 0.9709446 0.2393046)
(-1 0 0)
(0 1 0)
(-1 0 0)
(0 0.9709446 -0.2393046)
(-1 0 0)
(0 0.8854538 -0.4647274)
(-1 0 0)
(0 0.7485164 -0.6631163)
(-1 0 0)
(0 0.5680566 -0.8229895)
(-1 0 -0)
(0 0.3546106 -0.9350141)
(-1 0 0)
(0 0.1205363 -0.9927089)
(-1 0 0)
(0 -0.1205359 -0.992709)
(-1 0 0)
(0 -0.3546118 -0.9350136)
(-1 0 0)
(0 -0.5680549 -0.8229907)
(-1 0 0)
(0 -0.7485164 -0.6631163)
(-1 0 0)
(0 -0.8854538 -0.4647274)
(-1 0 0)
(0 -0.9709446 -0.2393046)
(-1 0 0)
(0 -1 0)
(-1 0 0)
(0 -0.9709446 0.2393046)
(-1 0 0)
(0 -0.8854538 0.4647274)
(-1 0 0)
(0 -0.7485164 0.6631163)
(-1 -0 0)
(0 -0.5680498 0.8229942)
(-1 0 0)
(0 -0.3546184 0.9350111)
(-1 0 0)
(0 -0.1205285 0.9927099)
(-1 0 0)
(-1 0 0)
(0 1 0)
(-1 0 -0)
(-1.156482e-17 0 -1)
(-1 0 0)
(0 -1 0)
(-1 0 0)
(0 0 1)
(0 1 -0)
(0 0 1)
(0 -1 0)
(1 0 -0)
(0 -2.312965e-17 -1)
(1 0 0)
(1 -0 0)
(0 2.312965e-17 -1)
(1 0 0)
(1 0 0)
(0.01167814 0.1205265 0.9926414)
(1 0 0)
(0.01099952 0.3545847 0.9349592)
(1 0 0)
(0.009681709 0.568038 0.8229454)
(0.007801197 0.7484886 0.6631018)
(1 0 0)
(0.005467246 0.8854429 0.464716)
(0.002815504 0.9709373 0.2393175)
(1 0 0)
(0 1 -0)
(1 0 0)
(-0.0028155 0.9709373 -0.2393174)
(1 0 0)
(-0.005467238 0.8854433 -0.4647152)
(1 0 0)
(-0.007801201 0.7484883 -0.6631021)
(1 0 0)
(-0.009681724 0.5680364 -0.8229465)
(1 0 0)
(-0.01099953 0.3545833 -0.9349597)
(1 0 0)
(-0.01167813 0.1205289 -0.9926411)
(1 0 0)
(-0.01167813 -0.1205287 -0.9926411)
(1 0 0)
(-0.01099952 -0.3545838 -0.9349595)
(1 0 0)
(-0.009681726 -0.5680361 -0.8229467)
(1 0 0)
(-0.007801207 -0.7484879 -0.6631025)
(1 0 0)
(-0.005467238 -0.8854433 -0.4647152)
(1 0 0)
(-0.002815491 -0.9709375 -0.2393167)
(1 0 0)
(-0 -1 -0)
(1 0 0)
(0.002815492 -0.9709375 0.2393168)
(1 0 0)
(0.005467254 -0.8854429 0.464716)
(1 0 0)
(0.007801202 -0.7484882 0.6631023)
(1 0 0)
(0.009681712 -0.5680376 0.8229457)
(1 0 0)
(0.01099952 -0.3545852 0.934959)
(1 0 0)
(0.01167813 -0.1205264 0.9926414)
(1 0 0)
(-0 0.120529 0.9927098)
(-1 0 0)
(-0 0.3546171 0.9350116)
(-1 0 0)
(-0 0.5680516 0.822993)
(-1 0 0)
(-0 0.7485164 0.6631163)
(-1 0 0)
(-0 0.8854538 0.4647274)
(-1 0 0)
(-0 0.9709446 0.2393046)
(-1 0 0)
(0 1 0)
(-1 0 0)
(0 0.9709446 -0.2393046)
(-1 0 -0)
(0 0.8854538 -0.4647274)
(-1 0 -0)
(0 0.7485164 -0.6631163)
(-1 0 -0)
(0 0.5680566 -0.8229895)
(-1 0 0)
(0 0.3546106 -0.9350141)
(-1 0 0)
(0 0.1205363 -0.9927089)
(-1 0 0)
(0 -0.1205359 -0.992709)
(-1 0 -0)
(0 -0.3546118 -0.9350136)
(-1 0 -0)
(0 -0.5680549 -0.8229907)
(-1 0 -0)
(0 -0.7485164 -0.6631163)
(-1 0 0)
(0 -0.8854538 -0.4647274)
(-1 0 0)
(0 -0.9709446 -0.2393046)
(-1 0 0)
(0 -1 0)
(-1 0 0)
(0 -0.9709446 0.2393046)
(-1 0 0)
(0 -0.8854538 0.4647274)
(-1 0 0)
(0 -0.7485164 0.6631163)
(-1 0 0)
(0 -0.5680498 0.8229942)
(-1 0 0)
(0 -0.3546184 0.9350111)
(-1 0 0)
(0 -0.1205285 0.9927099)
(-1 0 0)
(1 -0 -0)
(0.007801197 0.7484886 0.6631018)
(1 -0 0)
(0.009681709 0.568038 0.8229454)
(1 -0 -0)
(0.005467262 0.8854426 0.4647166)
(1 -0 0)
(0.01099952 0.3545847 0.9349592)
(1 -0 -0)
(0.002815497 0.9709374 0.2393172)
(1 -0 0)
(0.01167813 0.1205273 0.9926413)
(1 -0 0)
(0 1 0)
(1 0 -0)
(0.01167814 -0.1205271 0.9926413)
(1 -0 0)
(-0.002815499 0.9709373 -0.2393174)
(1 0 -0)
(0.01099952 -0.3545852 0.934959)
(1 -0 0)
(-0.005467238 0.8854433 -0.4647152)
(1 0 -0)
(0.009681712 -0.5680376 0.8229457)
(1 -0 0)
(-0.007801202 0.7484883 -0.6631021)
(1 -0 0)
(-0.009681722 0.5680365 -0.8229464)
(1 -0 0)
(-0.01099952 0.3545834 -0.9349597)
(1 0 0)
(-0.01099952 -0.3545839 -0.9349595)
(1 0 0)
(-0.009681726 -0.5680362 -0.8229467)
(1 0 0)
(-0.007801207 -0.7484879 -0.6631025)
(1 0 0)
(-0.005467238 -0.8854433 -0.4647152)
(1 0 0)
(-0.002815491 -0.9709375 -0.2393167)
(1 0 0)
(0 -1 0)
(1 0 0)
(0.002815492 -0.9709375 0.2393165)
(1 0 0)
(0.005467254 -0.8854426 0.4647166)
(1 0 0)
(0.007801202 -0.7484882 0.6631023)
(-0.01167813 0.1205288 -0.9926411)
(-0.01167813 -0.1205286 -0.9926412)
)

// normal volume types

220
(
0
0
0
0
0
0
0
0
0
0
0
0
0
0
0
0
0
0
0
0
0
0
0
0
0
0
0
0
0
0
0
0
0
0
0
0
0
0
0
0
0
0
0
0
0
0
0
0
0
0
0
0
0
0
0
0
0
0
0
0
0
0
0
0
0
0
0
0
0
0
0
0
0
0
0
0
0
0
0
0
0
0
0
0
0
0
0
0
0
0
0
0
0
0
0
0
0
0
0
0
0
0
0
0
0
0
0
0
0
0
0
0
0
0
0
0
0
0
0
0
0
0
0
0
0
0
0
0
0
0
0
0
0
0
0
0
0
0
0
0
0
0
0
0
0
0
0
0
0
0
0
0
0
0
0
0
0
0
0
0
0
0
0
0
0
0
0
0
0
0
0
0
0
0
0
0
0
0
0
0
0
0
0
0
0
0
0
0
0
0
0
0
0
0
0
0
0
0
0
0
0
0
0
0
0
0
0
0
0
0
0
0
0
0
0
0
0
0
0
0
)

// normalDirections

117
(
2(1 -1)
2(1 -1)
2(1 -1)
2(1 -1)
2(1 -1)
2(1 -1)
2(1 -1)
2(1 -1)
2(1 -1)
2(1 -1)
2(1 -1)
2(1 -1)
2(1 -1)
2(1 -1)
2(1 -1)
2(1 -1)
2(1 -1)
2(1 -1)
2(1 -1)
2(1 -1)
2(1 -1)
2(1 -1)
2(1 -1)
2(1 -1)
2(1 -1)
2(1 -1)
2(1 -1)
2(1 -1)
2(1 -1)
2(1 -1)
2(1 -1)
2(1 -1)
2(1 -1)
2(1 -1)
2(1 -1)
2(1 -1)
2(1 -1)
2(1 -1)
2(1 -1)
2(1 -1)
2(1 -1)
2(1 -1)
2(1 -1)
2(1 -1)
2(1 -1)
2(1 -1)
2(1 -1)
2(1 -1)
2(1 -1)
2(1 -1)
2(1 -1)
2(1 -1)
2(1 -1)
2(1 -1)
2(1 -1)
2(1 -1)
2(1 -1)
2(1 -1)
2(1 -1)
2(1 -1)
2(1 -1)
2(1 -1)
2(1 -1)
2(1 -1)
2(1 -1)
2(1 -1)
2(1 -1)
2(1 -1)
2(1 -1)
2(1 -1)
2(1 -1)
2(1 -1)
2(1 -1)
2(1 -1)
2(1 -1)
2(1 -1)
2(1 -1)
2(1 -1)
2(1 -1)
2(1 -1)
2(1 -1)
2(1 -1)
2(1 -1)
2(1 -1)
2(1 -1)
2(1 -1)
2(1 -1)
2(1 -1)
2(1 -1)
2(1 -1)
2(1 -1)
2(1 -1)
2(1 -1)
2(1 -1)
2(1 -1)
2(1 -1)
2(1 -1)
2(1 -1)
2(1 -1)
2(1 -1)
2(1 -1)
2(1 -1)
2(1 -1)
2(1 -1)
2(1 -1)
2(1 -1)
2(1 -1)
2(1 -1)
2(1 -1)
2(1 -1)
2(1 -1)
2(1 -1)
2(1 -1)
2(1 -1)
2(1 -1)
2(1 -1)
2(1 -1)
)

// edgeNormals

117
(
2(0 1)
2(2 3)
2(4 3)
2(5 6)
2(7 6)
2(8 9)
2(10 11)
2(12 13)
2(14 15)
2(16 17)
2(18 19)
2(20 21)
2(22 23)
2(24 25)
2(26 27)
2(28 29)
2(30 31)
2(32 33)
2(34 35)
2(36 37)
2(38 39)
2(40 41)
2(42 43)
2(44 45)
2(46 47)
2(48 49)
2(50 51)
2(52 53)
2(54 55)
2(56 57)
2(57 58)
2(59 60)
2(59 61)
2(55 62)
2(60 63)
2(58 64)
2(51 65)
2(62 66)
2(65 67)
2(68 69)
2(70 71)
2(72 71)
2(73 74)
2(75 74)
2(76 77)
2(78 79)
2(80 81)
2(82 83)
2(84 85)
2(86 87)
2(88 89)
2(90 91)
2(92 93)
2(94 95)
2(96 97)
2(98 99)
2(100 101)
2(102 103)
2(104 105)
2(106 107)
2(108 109)
2(110 111)
2(112 113)
2(114 115)
2(116 117)
2(118 119)
2(120 121)
2(122 123)
2(124 125)
2(126 127)
2(128 129)
2(130 131)
2(132 133)
2(134 135)
2(136 137)
2(138 139)
2(140 141)
2(142 143)
2(144 145)
2(146 147)
2(148 149)
2(150 151)
2(152 153)
2(154 155)
2(156 157)
2(158 159)
2(160 161)
2(162 163)
2(164 165)
2(166 167)
2(168 169)
2(170 171)
2(172 173)
2(174 175)
2(176 177)
2(178 179)
2(180 181)
2(182 183)
2(184 185)
2(186 187)
2(188 189)
2(190 191)
2(192 193)
2(194 195)
2(196 197)
2(198 199)
2(200 201)
2(202 203)
2(204 205)
2(206 207)
2(208 209)
2(210 211)
2(212 213)
2(214 215)
2(216 217)
2(67 218)
2(66 219)
)

// featurePointNormals

9
(
3(50 51 57)
3(50 51 53)
3(52 53 55)
3(54 55 57)
3(57 58 61)
3(59 60 61)
3(55 62 63)
3(58 64 65)
4(62 66 218 219)
)

// featurePointEdges

9
(
3(29 30 26)
3(27 36 26)
3(28 33 27)
3(29 31 28)
3(32 35 30)
3(31 34 32)
3(34 37 33)
3(36 38 35)
4(37 116 115 38)
)

// regionEdges
0()


// ************************************************************************* //
