/*--------------------------------*- C++ -*----------------------------------*\
  =========                 |
  \\      /  F ield         | OpenFOAM: The Open Source CFD Toolbox
   \\    /   O peration     | Website:  https://openfoam.org
    \\  /    A nd           | Version:  7
     \\/     M anipulation  |
\*---------------------------------------------------------------------------*/
FoamFile
{
    version     2.0;
    format      ascii;
    class       extendedFeatureEdgeMesh;
    location    "constant/extendedFeatureEdgeMesh";
    object      concreteWall.extendedFeatureEdgeMesh;
}
// * * * * * * * * * * * * * * * * * * * * * * * * * * * * * * * * * * * * * //

// points

64
(
(0 0.6 0)
(0 0 0)
(0.6 0.6 0)
(0.6 0 0)
(0 0.6 0.9)
(0 0 0.9)
(0.6 0.6 0.9)
(0.6 0 0.9)
(0.6 0.3 -6.938894e-18)
(0 0.3219063 0.7752729)
(0 0.3271873 0.781234)
(0 0.3153521 0.770749)
(0 0.3308883 0.7882856)
(0 0.3079058 0.7679249)
(0 0.3327941 0.7960181)
(0 0.3 0.766965)
(0 0.3327941 0.8039819)
(0 0.2920942 0.7679249)
(0 0.3308883 0.8117144)
(0 0.2846479 0.770749)
(0 0.3271873 0.818766)
(0 0.2780937 0.7752729)
(0 0.3219063 0.8247271)
(0 0.3153521 0.829251)
(0 0.3079058 0.8320751)
(0 0.3 0.833035)
(0 0.2728127 0.781234)
(0 0.2691117 0.7882856)
(0 0.2672059 0.7960181)
(0 0.2672059 0.8039819)
(0 0.2691117 0.8117144)
(0 0.2728127 0.818766)
(0 0.2780937 0.8247271)
(0 0.2846479 0.829251)
(0 0.2920942 0.8320751)
(0.6 0.3470346 0.1447575)
(0.6 0.3594664 0.1335638)
(0.6 0.3692994 0.12003)
(0.6 0.3325471 0.1531219)
(0.6 0.3761035 0.1047475)
(0.6 0.3166371 0.1582914)
(0.6 0.3795816 0.08838437)
(0.6 0.3 0.16004)
(0.6 0.3795816 0.07165563)
(0.6 0.2833629 0.1582914)
(0.6 0.3761035 0.05529246)
(0.6 0.2674529 0.1531219)
(0.6 0.3692994 0.04001)
(0.6 0.2529654 0.1447575)
(0.6 0.3594664 0.02647617)
(0.6 0.2405336 0.1335638)
(0.6 0.3470346 0.01528246)
(0.6 0.3325471 0.006918092)
(0.6 0.3166371 0.001748629)
(0.6 0.2833629 0.001748629)
(0.6 0.2674529 0.006918092)
(0.6 0.2529654 0.01528246)
(0.6 0.2405336 0.02647617)
(0.6 0.2307006 0.04001)
(0.6 0.2238965 0.05529246)
(0.6 0.2204184 0.07165563)
(0.6 0.2204184 0.08838437)
(0.6 0.2238965 0.1047475)
(0.6 0.2307006 0.12003)
)

// edges

69
(
(4 0)
(0 1)
(1 5)
(6 2)
(2 0)
(1 3)
(3 7)
(8 2)
(3 8)
(9 10)
(11 9)
(10 12)
(13 11)
(12 14)
(15 13)
(14 16)
(17 15)
(16 18)
(19 17)
(18 20)
(21 19)
(20 22)
(22 23)
(23 24)
(24 25)
(26 21)
(27 26)
(28 27)
(29 28)
(30 29)
(31 30)
(32 31)
(33 32)
(34 33)
(25 34)
(5 4)
(4 6)
(7 5)
(35 36)
(36 37)
(38 35)
(37 39)
(40 38)
(39 41)
(6 7)
(42 40)
(41 43)
(44 42)
(43 45)
(46 44)
(45 47)
(48 46)
(47 49)
(50 48)
(49 51)
(51 52)
(52 53)
(54 55)
(55 56)
(56 57)
(57 58)
(58 59)
(59 60)
(60 61)
(61 62)
(62 63)
(63 50)
(53 8)
(8 54)
)

// concaveStart mixedStart nonFeatureStart
4 4 9
// internalStart flatStart openStart multipleStart
9 9 9 69
// normals

70
(
(-1 0 -0)
(-1 0 0)
(-1 0 -0)
(-1 0 0)
(-1 0 -0)
(-1 0 0)
(-1 0 0)
(-1 0 -0)
(-1 0 0)
(-1 0 -0)
(-1 0 0)
(-1 0 -0)
(-1 0 0)
(-1 0 0)
(-1 0 0)
(-1 0 0)
(-1 0 0)
(-1 0 0)
(-1 0 0)
(-1 0 0)
(-1 0 0)
(-1 0 0)
(-1 0 0)
(-1 0 0)
(-1 0 0)
(-1 0 0)
(-1 0 0)
(0 1 -0)
(0 -1 0)
(1 -0 0)
(1 -0 -0)
(1 -0 0)
(1 -0 -0)
(1 -0 0)
(1 -0 -0)
(1 0 -0)
(1 -0 0)
(1 -0 0)
(1 0 -0)
(1 -0 0)
(1 0 -0)
(1 -0 0)
(1 0 -0)
(1 -0 0)
(1 0 -0)
(1 -0 0)
(1 -0 0)
(1 -0 0)
(1 0 0)
(1 0 0)
(1 0 0)
(1 0 0)
(1 0 0)
(1 0 0)
(1 0 0)
(1 0 0)
(1 0 0)
(1 0 0)
(1 0 0)
(1 0 0)
(-1 0 0)
(0 1 0)
(-1 0 -0)
(-1.156482e-17 0 -1)
(-1 0 0)
(0 -1 0)
(1 -0 0)
(0 2.312965e-17 -1)
(0 -2.312965e-17 -1)
(1 0 0)
)

// normal volume types

70
(
0
0
0
0
0
0
0
0
0
0
0
0
0
0
0
0
0
0
0
0
0
0
0
0
0
0
0
0
0
0
0
0
0
0
0
0
0
0
0
0
0
0
0
0
0
0
0
0
0
0
0
0
0
0
0
0
0
0
0
0
0
0
0
0
0
0
0
0
0
0
)

// normalDirections

69
(
2(1 -1)
2(1 -1)
2(1 -1)
2(1 -1)
2(1 -1)
2(1 -1)
2(1 -1)
2(1 -1)
2(1 -1)
1(1)
1(1)
1(1)
1(1)
1(1)
1(1)
1(1)
1(1)
1(1)
1(1)
1(1)
1(1)
1(1)
1(1)
1(1)
1(1)
1(1)
1(1)
1(1)
1(1)
1(1)
1(1)
1(1)
1(1)
1(1)
1(1)
1(1)
1(1)
1(1)
1(1)
1(1)
1(1)
1(1)
1(1)
1(1)
1(1)
1(1)
1(1)
1(1)
1(1)
1(1)
1(1)
1(1)
1(1)
1(1)
1(1)
1(1)
1(1)
1(1)
1(1)
1(1)
1(1)
1(1)
1(1)
1(1)
1(1)
1(1)
1(1)
1(1)
1(1)
)

// edgeNormals

69
(
2(60 61)
2(62 63)
2(64 65)
2(27 66)
2(61 67)
2(65 68)
2(28 69)
2(58 67)
2(59 68)
1(0)
1(1)
1(2)
1(3)
1(4)
1(5)
1(6)
1(7)
1(8)
1(9)
1(10)
1(11)
1(12)
1(13)
1(14)
1(15)
1(16)
1(17)
1(18)
1(19)
1(20)
1(21)
1(22)
1(23)
1(24)
1(25)
1(26)
1(27)
1(28)
1(29)
1(30)
1(31)
1(32)
1(33)
1(34)
1(35)
1(36)
1(37)
1(38)
1(39)
1(40)
1(41)
1(42)
1(43)
1(44)
1(45)
1(46)
1(47)
1(48)
1(49)
1(50)
1(51)
1(52)
1(53)
1(54)
1(55)
1(56)
1(57)
1(58)
1(59)
)

// featurePointNormals

9
(
3(60 61 63)
3(62 63 65)
3(27 66 67)
3(65 68 69)
2(60 61)
2(64 65)
2(27 66)
2(28 69)
2(58 67)
)

// featurePointEdges

9
(
3(1 4 0)
3(2 5 1)
3(4 7 3)
3(6 8 5)
3(0 35 36)
3(2 35 37)
3(3 36 44)
3(6 37 44)
4(7 8 67 68)
)

// regionEdges

60
(
9
10
11
12
13
14
15
16
17
18
19
20
21
22
23
24
25
26
27
28
29
30
31
32
33
34
35
36
37
38
39
40
41
42
43
44
45
46
47
48
49
50
51
52
53
54
55
56
57
58
59
60
61
62
63
64
65
66
67
68
)



// ************************************************************************* //
