/*--------------------------------*- C++ -*----------------------------------*\
  =========                 |
  \\      /  F ield         | OpenFOAM: The Open Source CFD Toolbox
   \\    /   O peration     | Website:  https://openfoam.org
    \\  /    A nd           | Version:  7
     \\/     M anipulation  |
\*---------------------------------------------------------------------------*/
FoamFile
{
    version     2.0;
    format      ascii;
    class       extendedFeatureEdgeMesh;
    location    "constant/extendedFeatureEdgeMesh";
    object      disipador.extendedFeatureEdgeMesh;
}
// * * * * * * * * * * * * * * * * * * * * * * * * * * * * * * * * * * * * * //

// points

4813
(
(0 0 0.22)
(0.1182648 0.1936907 0.22)
(0.4037096 0.1221935 0.22)
(0 0.6 0.22)
(0.6 0 0.22)
(0.4612904 0.3971935 0.22)
(0.1962904 0.4778065 0.22)
(0.606 0.6 0.22)
(0.1962904 0.4778065 0.27)
(0.1387096 0.3971935 0.22)
(0.1387096 0.3971935 0.27)
(0.4037096 0.4778065 0.22)
(0.4037096 0.4778065 0.27)
(0.4612904 0.3971935 0.27)
(0.4612904 0.2028065 0.22)
(0.4037096 0.1221935 0.27)
(0.4612904 0.2028065 0.27)
(0.1182648 0.1936907 0.27)
(0.2035896 0.143355 0.27)
(0.2035896 0.143355 0.22)
(0.1182544 0.1063169 0.22)
(0.1098659 0.1138718 0.22)
(0.1032314 0.1230056 0.22)
(0.1280303 0.1006712 0.22)
(0.09864095 0.1333192 0.22)
(0.1387664 0.09718137 0.22)
(0.09629514 0.1443619 0.22)
(0.1499935 0.096 0.22)
(0.09629649 0.155651 0.22)
(0.1612209 0.09717869 0.22)
(0.09864495 0.1666931 0.22)
(0.1098745 0.1861379 0.22)
(0.1901255 0.1138621 0.22)
(0.1817352 0.1063093 0.22)
(0.1280421 0.1993341 0.22)
(0.1190216 0.4057695 0.22)
(0.1105025 0.4131768 0.22)
(0.1719579 0.1006659 0.22)
(0.4190216 0.1057695 0.22)
(0.4105025 0.1131768 0.22)
(0.1032379 0.1770056 0.22)
(0.1037096 0.4221935 0.22)
(0.1967621 0.1229944 0.22)
(0.1387791 0.2028213 0.22)
(0.1288946 0.4002953 0.22)
(0.4288946 0.1002953 0.22)
(0.09893989 0.4324254 0.22)
(0.3989399 0.1324254 0.22)
(0.2013551 0.1333069 0.22)
(0.1500065 0.204 0.22)
(0.13969 0.3969934 0.22)
(0.3964017 0.1434255 0.22)
(0.2037035 0.144349 0.22)
(0.1612336 0.2028186 0.22)
(0.150936 0.3960081 0.22)
(0.3962061 0.1547129 0.22)
(0.2037049 0.1556381 0.22)
(0.1621411 0.3973826 0.22)
(0.1719697 0.1993288 0.22)
(0.3983614 0.1657943 0.22)
(0.2013591 0.1666808 0.22)
(0.1728155 0.4010566 0.22)
(0.1817456 0.1936831 0.22)
(0.4027737 0.1761854 0.22)
(0.1967686 0.1769944 0.22)
(0.1824928 0.4068698 0.22)
(0.1901341 0.1861282 0.22)
(0.4092499 0.1854321 0.22)
(0.09640172 0.4434255 0.22)
(0.09620605 0.4547129 0.22)
(0.09836143 0.4657943 0.22)
(0.1027737 0.4761854 0.22)
(0.1092499 0.4854321 0.22)
(0.4824928 0.1068698 0.22)
(0.4728155 0.1010566 0.22)
(0.4621411 0.09738256 0.22)
(0.450936 0.09600811 0.22)
(0.43969 0.09699337 0.22)
(0.1907501 0.4145679 0.22)
(0.4907501 0.1145679 0.22)
(0.1175072 0.4931302 0.22)
(0.4972263 0.1238146 0.22)
(0.1271845 0.4989434 0.22)
(0.5016386 0.1342057 0.22)
(0.1378589 0.5026174 0.22)
(0.5037939 0.1452871 0.22)
(0.149064 0.5039919 0.22)
(0.5035983 0.1565745 0.22)
(0.16031 0.5030066 0.22)
(0.5010601 0.1675746 0.22)
(0.4175072 0.1931302 0.22)
(0.4271845 0.1989434 0.22)
(0.4183118 0.4062752 0.22)
(0.4099134 0.413819 0.22)
(0.4032669 0.4229441 0.22)
(0.1972263 0.4238146 0.22)
(0.4378589 0.2026174 0.22)
(0.4280952 0.4006423 0.22)
(0.3986629 0.4332517 0.22)
(0.2016386 0.4342057 0.22)
(0.449064 0.2039919 0.22)
(0.4388359 0.3971666 0.22)
(0.3963026 0.4442913 0.22)
(0.2037939 0.4452871 0.22)
(0.46031 0.2030066 0.22)
(0.4500646 0.396 0.22)
(0.3962891 0.4555803 0.22)
(0.2035983 0.4565745 0.22)
(0.4711054 0.1997047 0.22)
(0.398623 0.4666255 0.22)
(0.2010601 0.4675746 0.22)
(0.4809784 0.1942305 0.22)
(0.4720227 0.4006948 0.22)
(0.4032024 0.4769441 0.22)
(0.4894975 0.1868232 0.22)
(0.4817926 0.4063511 0.22)
(0.409827 0.4860851 0.22)
(0.1894975 0.4868232 0.22)
(0.4962904 0.1778065 0.22)
(0.490173 0.4139149 0.22)
(0.1809784 0.4942305 0.22)
(0.4182074 0.4936489 0.22)
(0.4967976 0.4230559 0.22)
(0.1711054 0.4997047 0.22)
(0.4279773 0.4993052 0.22)
(0.501377 0.4333745 0.22)
(0.4387096 0.5028065 0.22)
(0.4499354 0.504 0.22)
(0.4611641 0.5028334 0.22)
(0.4719048 0.4993577 0.22)
(0.4816882 0.4937248 0.22)
(0.4900866 0.486181 0.22)
(0.4967331 0.4770559 0.22)
(0.5013371 0.4667483 0.22)
(0.5036974 0.4557087 0.22)
(0.5037109 0.4444197 0.22)
(0.1895334 0.4867846 0.27)
(0.1810646 0.49417 0.27)
(0.1712508 0.4996428 0.27)
(0.1605167 0.502966 0.27)
(0.1493273 0.5039958 0.27)
(0.138167 0.5026876 0.27)
(0.1275191 0.499098 0.27)
(0.1178446 0.4933824 0.27)
(0.1095625 0.4857884 0.27)
(0.1030313 0.4766447 0.27)
(0.09853383 0.4663473 0.27)
(0.09626488 0.455342 0.27)
(0.09632268 0.4441055 0.27)
(0.09870471 0.4331242 0.27)
(0.1033078 0.4228736 0.27)
(0.1099328 0.4137976 0.27)
(0.1182926 0.4062891 0.27)
(0.1280254 0.4006734 0.27)
(0.09570291 0.3859077 0.22)
(0.08565227 0.3960058 0.22)
(0.08565227 0.3960058 4.440892e-16)
(0.09570291 0.3859077 4.440892e-16)
(0.1073156 0.3776533 0.22)
(0.1073156 0.3776533 4.440892e-16)
(0.1201562 0.3714803 4.440892e-16)
(0.1338554 0.3675661 4.440892e-16)
(0.1321859 0.3679107 0.02893655)
(0.1320491 0.3679405 0.02983971)
(0.1325197 0.3678389 0.02805692)
(0.1330412 0.3677297 0.02721583)
(0.133737 0.3675894 0.02642826)
(0.1349059 0.3673673 0.02548711)
(0.1321151 0.3679261 0.0307486)
(0.1321859 0.3679107 0.05893655)
(0.1320491 0.3679405 0.05983971)
(0.1324242 0.3678593 0.03173963)
(0.1325197 0.3678389 0.05805692)
(0.1330457 0.3677288 0.03279017)
(0.1330412 0.3677297 0.05721583)
(0.1364888 0.3670937 0.0246157)
(0.133737 0.3675894 0.05642826)
(0.1339347 0.3675506 0.03375706)
(0.1201562 0.3714803 0.22)
(0.1349059 0.3673673 0.05548711)
(0.1350564 0.3673399 0.03461201)
(0.1321151 0.3679261 0.0607486)
(0.1321859 0.3679107 0.08893655)
(0.1320491 0.3679405 0.08983971)
(0.1324242 0.3678593 0.06173963)
(0.1321151 0.3679261 0.0907486)
(0.1382629 0.366824 0.02398169)
(0.1325197 0.3678389 0.08805692)
(0.1330457 0.3677288 0.06279017)
(0.1330412 0.3677297 0.08721583)
(0.1364888 0.3670937 0.0546157)
(0.1363663 0.3671138 0.03532867)
(0.1339347 0.3675506 0.06375706)
(0.133737 0.3675894 0.08642826)
(0.140148 0.3665797 0.0236059)
(0.1350564 0.3673399 0.06461201)
(0.1349059 0.3673673 0.08548711)
(0.1390087 0.3667222 0.03620067)
(0.1382629 0.366824 0.05398169)
(0.1363663 0.3671138 0.06532867)
(0.1364888 0.3670937 0.0846157)
(0.140148 0.3665797 0.0536059)
(0.1382629 0.366824 0.08398169)
(0.1390087 0.3667222 0.06620067)
(0.1418254 0.3663987 0.0365)
(0.1433779 0.3662614 0.03640605)
(0.142064 0.3663757 0.05350217)
(0.140148 0.3665797 0.0836059)
(0.148019 0.3660234 4.440892e-16)
(0.142064 0.3663757 0.02350217)
(0.1439312 0.3662195 0.02367496)
(0.1456767 0.3661113 0.02411767)
(0.1448651 0.3661571 0.03612592)
(0.1439312 0.3662195 0.05367496)
(0.1472338 0.3660456 0.0248121)
(0.1418254 0.3663987 0.0665)
(0.1433779 0.3662614 0.06640605)
(0.142064 0.3663757 0.08350217)
(0.1456767 0.3661113 0.05411767)
(0.1462202 0.3660851 0.03567737)
(0.1467943 0.3660612 0.04392528)
(0.1466746 0.3660659 0.0449022)
(0.1485462 0.3660126 0.02572942)
(0.1467763 0.3660619 0.04599182)
(0.1474382 0.3660391 0.03506924)
(0.1471092 0.3660498 0.04297547)
(0.1476097 0.366034 0.04207238)
(0.1448651 0.3661571 0.06612592)
(0.1439312 0.3662195 0.08367496)
(0.1495678 0.3660011 0.02683158)
(0.1484902 0.3660136 0.03431854)
(0.1482823 0.3660176 0.0412352)
(0.1472338 0.3660456 0.0548121)
(0.1471748 0.3660475 0.0471678)
(0.1478562 0.3660274 0.0482679)
(0.1493522 0.3660025 0.0334462)
(0.149109 0.3660047 0.0404826)
(0.1502626 0.3660004 0.02807121)
(0.1505882 0.3660021 0.02926016)
(0.1462202 0.3660851 0.06567737)
(0.1456767 0.3661113 0.08411767)
(0.1467943 0.3660612 0.07392528)
(0.1466746 0.3660659 0.0749022)
(0.1489525 0.3660065 0.04939124)
(0.1485462 0.3660126 0.05572942)
(0.1467763 0.3660619 0.07599182)
(0.1474382 0.3660391 0.06506924)
(0.1471092 0.3660498 0.07297547)
(0.1390087 0.3667222 0.09620067)
(0.1418254 0.3663987 0.0965)
(0.1363663 0.3671138 0.09532867)
(0.1338554 0.3675661 0.22)
(0.1350564 0.3673399 0.09461201)
(0.1339347 0.3675506 0.09375706)
(0.1330457 0.3677288 0.09279017)
(0.1324242 0.3678593 0.09173963)
(0.1504345 0.3660011 0.031436)
(0.1506305 0.3660024 0.03035373)
(0.1500051 0.366 0.03247641)
(0.1504115 0.366001 0.03964087)
(0.1476097 0.366034 0.07207238)
(0.1495678 0.3660011 0.05683158)
(0.1484902 0.3660136 0.06431854)
(0.1482823 0.3660176 0.0712352)
(0.1472338 0.3660456 0.0848121)
(0.1471748 0.3660475 0.0771678)
(0.1478562 0.3660274 0.0782679)
(0.150556 0.3660018 0.05043381)
(0.1493522 0.3660025 0.0634462)
(0.149109 0.3660047 0.0704826)
(0.1502626 0.3660004 0.05807121)
(0.1520723 0.3660256 0.03895544)
(0.1505882 0.3660021 0.05926016)
(0.1485462 0.3660126 0.08572942)
(0.1489525 0.3660065 0.07939124)
(0.1504345 0.3660011 0.061436)
(0.1506305 0.3660024 0.06035373)
(0.1500051 0.366 0.06247641)
(0.1504115 0.366001 0.06964087)
(0.1526277 0.3660411 0.05119908)
(0.1538507 0.3660883 0.03857547)
(0.1495678 0.3660011 0.08683158)
(0.150556 0.3660018 0.08043381)
(0.1502626 0.3660004 0.08807121)
(0.1520723 0.3660256 0.06895544)
(0.1505882 0.3660021 0.08926016)
(0.1556597 0.3661909 0.03851659)
(0.1526277 0.3660411 0.08119908)
(0.1506305 0.3660024 0.09035373)
(0.1550848 0.366154 0.0515)
(0.1538507 0.3660883 0.06857547)
(0.1566936 0.3662671 0.05136762)
(0.1556597 0.3661909 0.06851659)
(0.1574108 0.3663275 0.03878187)
(0.1596052 0.366551 0.02833067)
(0.1593679 0.366524 0.02950431)
(0.1622396 0.3668965 4.440892e-16)
(0.1550848 0.366154 0.0815)
(0.160092 0.3666084 0.02721296)
(0.1590229 0.366486 0.03935947)
(0.15939 0.3665265 0.03069659)
(0.1597192 0.3665642 0.0319953)
(0.1608096 0.3666984 0.02618762)
(0.1582172 0.3664029 0.05097483)
(0.1574108 0.3663275 0.06878187)
(0.1617305 0.3668231 0.02528948)
(0.1604357 0.3666508 0.03333096)
(0.1604208 0.3666489 0.04022094)
(0.1614761 0.3667876 0.03449346)
(0.1596031 0.3665507 0.05033285)
(0.1596052 0.366551 0.05833067)
(0.1593679 0.366524 0.05950431)
(0.1628178 0.3669837 0.02455042)
(0.1615427 0.3667968 0.04132345)
(0.1606704 0.3666805 0.04957504)
(0.160092 0.3666084 0.05721296)
(0.1590229 0.366486 0.06935947)
(0.15939 0.3665265 0.06069659)
(0.1597192 0.3665642 0.0619953)
(0.1613494 0.3667703 0.04890651)
(0.1608096 0.3666984 0.05618762)
(0.1640242 0.367179 0.02399716)
(0.1629408 0.3670028 0.03551737)
(0.1623414 0.3669115 0.0426129)
(0.1627549 0.366974 0.04387983)
(0.1619124 0.366849 0.04816572)
(0.1617305 0.3668231 0.05528948)
(0.1623509 0.366913 0.04736625)
(0.1604357 0.3666508 0.06333096)
(0.1604208 0.3666489 0.07022094)
(0.1628623 0.3669906 0.0447629)
(0.1614761 0.3667876 0.06449346)
(0.1653077 0.3674066 0.02364465)
(0.1582172 0.3664029 0.08097483)
(0.1596031 0.3665507 0.08033285)
(0.1596052 0.366551 0.08833067)
(0.1593679 0.366524 0.08950431)
(0.1566936 0.3662671 0.08136762)
(0.15939 0.3665265 0.09069659)
(0.1628178 0.3669837 0.05455042)
(0.1626582 0.3669592 0.04652262)
(0.1628296 0.3669855 0.0456501)
(0.1615427 0.3667968 0.07132345)
(0.1606704 0.3666805 0.07957504)
(0.160092 0.3666084 0.08721296)
(0.1648323 0.3673199 0.03625052)
(0.1448651 0.3661571 0.09612592)
(0.1462202 0.3660851 0.09567737)
(0.1433779 0.3662614 0.09640605)
(0.148019 0.3660234 0.22)
(0.1504345 0.3660011 0.091436)
(0.1500051 0.366 0.09247641)
(0.1493522 0.3660025 0.0934462)
(0.1484902 0.3660136 0.09431854)
(0.1474382 0.3660391 0.09506924)
(0.1608096 0.3666984 0.08618762)
(0.1613494 0.3667703 0.07890651)
(0.1666282 0.3676623 0.02350271)
(0.1640242 0.367179 0.05399716)
(0.1629408 0.3670028 0.06551737)
(0.1623414 0.3669115 0.0726129)
(0.1627549 0.366974 0.07387983)
(0.1617305 0.3668231 0.08528948)
(0.1619124 0.366849 0.07816572)
(0.1623509 0.366913 0.07736625)
(0.1628623 0.3669906 0.0747629)
(0.1679378 0.3679376 0.02357621)
(0.1668376 0.3677048 0.0365)
(0.1653077 0.3674066 0.05364465)
(0.1626582 0.3669592 0.07652262)
(0.1628296 0.3669855 0.0756501)
(0.1628178 0.3669837 0.08455042)
(0.1648323 0.3673199 0.06625052)
(0.169196 0.3682228 0.02386223)
(0.1677096 0.3678881 0.03645233)
(0.1666282 0.3676623 0.05350271)
(0.1640242 0.367179 0.08399716)
(0.1685656 0.3680774 0.03630922)
(0.1679378 0.3679376 0.05357621)
(0.1668376 0.3677048 0.0665)
(0.1653077 0.3674066 0.08364465)
(0.1697885 0.3683641 0.03591981)
(0.169196 0.3682228 0.05386223)
(0.1677096 0.3678881 0.06645233)
(0.1666282 0.3676623 0.08350271)
(0.170902 0.3686421 0.03533305)
(0.1708505 0.3686289 0.04353129)
(0.1706716 0.3685833 0.0448509)
(0.1718718 0.3688975 0.03456915)
(0.1713103 0.3687481 0.04227905)
(0.1707856 0.3686123 0.04617828)
(0.170366 0.3685063 0.05435257)
(0.1685656 0.3680774 0.06630922)
(0.1679378 0.3679376 0.08357621)
(0.1711838 0.368715 0.04744844)
(0.1726703 0.369117 0.03365371)
(0.1720274 0.3689396 0.04114121)
(0.170366 0.3685063 0.02435257)
(0.1714129 0.3687751 0.02503312)
(0.1723025 0.3690148 0.02588119)
(0.1730077 0.3692123 0.02686796)
(0.1735081 0.3693565 0.02796021)
(0.1761081 0.3701604 4.440892e-16)
(0.1718446 0.3688901 0.04861426)
(0.1714129 0.3687751 0.05503312)
(0.1737896 0.3694391 0.02912144)
(0.1729692 0.3692014 0.04016202)
(0.1732755 0.3692891 0.03261663)
(0.1697885 0.3683641 0.06591981)
(0.169196 0.3682228 0.08386223)
(0.1723025 0.3690148 0.05588119)
(0.1728492 0.3691674 0.04973348)
(0.170902 0.3686421 0.06533305)
(0.1708505 0.3686289 0.07353128)
(0.1706716 0.3685833 0.0748509)
(0.1740934 0.3695295 0.03938176)
(0.1736706 0.3694041 0.03149113)
(0.1738441 0.3694552 0.03031292)
(0.1718718 0.3688975 0.06456915)
(0.1713103 0.3687481 0.07227905)
(0.1707856 0.3686123 0.07617828)
(0.170366 0.3685063 0.08435257)
(0.1730077 0.3692123 0.05686796)
(0.1711838 0.368715 0.07744844)
(0.1726703 0.369117 0.06365371)
(0.1720274 0.3689396 0.07114121)
(0.1735081 0.3693565 0.05796021)
(0.1742341 0.3695717 0.0506946)
(0.1753483 0.3699159 0.03883479)
(0.1718446 0.3688901 0.07861426)
(0.1714129 0.3687751 0.08503312)
(0.1737896 0.3694391 0.05912144)
(0.1732755 0.3692891 0.06261663)
(0.1729692 0.3692014 0.07016202)
(0.1738441 0.3694552 0.06031292)
(0.1723025 0.3690148 0.08588119)
(0.1728492 0.3691674 0.07973348)
(0.176671 0.3703466 0.03854566)
(0.1736706 0.3694041 0.06149113)
(0.1740934 0.3695295 0.06938176)
(0.1730077 0.3692123 0.08686796)
(0.1735081 0.3693565 0.08796021)
(0.1742341 0.3695717 0.0806946)
(0.1758086 0.370063 0.05129695)
(0.1753483 0.3699159 0.06883479)
(0.1780009 0.3708044 0.03852281)
(0.1737896 0.3694391 0.08912144)
(0.1738441 0.3694552 0.09031292)
(0.1648323 0.3673199 0.09625052)
(0.1668376 0.3677048 0.0965)
(0.1629408 0.3670028 0.09551737)
(0.1614761 0.3667876 0.09449346)
(0.1604357 0.3666508 0.09333096)
(0.1597192 0.3665642 0.0919953)
(0.1677096 0.3678881 0.09645232)
(0.1685656 0.3680774 0.09630922)
(0.1622396 0.3668965 0.22)
(0.1774519 0.3706124 0.0515)
(0.176671 0.3703466 0.06854566)
(0.1793015 0.3712763 0.03876693)
(0.1758086 0.370063 0.08129695)
(0.1810979 0.3719685 0.02854605)
(0.1809381 0.371905 0.02986321)
(0.1815125 0.372135 0.02729558)
(0.1805128 0.3717378 0.03926973)
(0.1810439 0.371947 0.03118794)
(0.1780009 0.3708044 0.06852281)
(0.17877 0.3710805 0.05136649)
(0.1821607 0.3724005 0.02615862)
(0.1774519 0.3706124 0.0815)
(0.1736706 0.3694041 0.09149113)
(0.1815855 0.3721646 0.04000914)
(0.1814078 0.3720927 0.0324561)
(0.1820104 0.3723383 0.03362017)
(0.1830132 0.3727593 0.02517903)
(0.1800248 0.3715493 0.05096897)
(0.1793015 0.3712763 0.06876693)
(0.182926 0.3727221 0.0347374)
(0.1824803 0.3725337 0.04095363)
(0.1811613 0.3719938 0.05032362)
(0.1810979 0.3719685 0.05854605)
(0.1809381 0.371905 0.0598632)
(0.1821349 0.3723898 0.04945847)
(0.1815125 0.372135 0.05729557)
(0.1805128 0.3717378 0.06926973)
(0.1810439 0.371947 0.06118794)
(0.1831661 0.3728248 0.04206467)
(0.1821607 0.3724005 0.05615861)
(0.182911 0.3727157 0.04840965)
(0.1841876 0.3732718 0.03569638)
(0.1836197 0.3730213 0.04329831)
(0.1815855 0.3721646 0.07000914)
(0.1814078 0.3720927 0.06245609)
(0.1820104 0.3723383 0.06362017)
(0.1838247 0.3731112 0.04460659)
(0.183463 0.3729531 0.04721947)
(0.1830132 0.3727593 0.05517903)
(0.1824803 0.3725337 0.07095364)
(0.182926 0.3727221 0.0647374)
(0.1800248 0.3715493 0.08096898)
(0.1811613 0.3719938 0.08032362)
(0.17877 0.3710805 0.08136649)
(0.1810979 0.3719685 0.08854605)
(0.1809381 0.371905 0.0898632)
(0.1840322 0.3732028 0.05439654)
(0.1837717 0.3730879 0.0459348)
(0.1810439 0.371947 0.09118794)
(0.1815125 0.372135 0.08729557)
(0.1821349 0.3723898 0.07945848)
(0.1831661 0.3728248 0.07206467)
(0.1840322 0.3732028 0.02439655)
(0.185172 0.3737181 0.02384508)
(0.1863781 0.3742858 0.02354954)
(0.1892255 0.3757211 4.440892e-16)
(0.1821607 0.3724005 0.08615861)
(0.182911 0.3727157 0.07840966)
(0.1875888 0.3748796 0.02351991)
(0.185172 0.3737181 0.05384508)
(0.1856219 0.3739271 0.03629727)
(0.1836197 0.3730213 0.07329831)
(0.1841876 0.3732718 0.06569638)
(0.1838247 0.3731112 0.07460659)
(0.1830132 0.3727593 0.08517903)
(0.183463 0.3729531 0.07721948)
(0.1887718 0.3754832 0.0237549)
(0.1871205 0.374647 0.0365)
(0.1863781 0.3742858 0.05354954)
(0.1840322 0.3732028 0.08439654)
(0.1837717 0.3730879 0.07593481)
(0.1898773 0.3760689 0.02424723)
(0.1875889 0.3748796 0.05351991)
(0.1877791 0.3749751 0.03646051)
(0.1884288 0.3753058 0.03634172)
(0.185172 0.3737181 0.08384508)
(0.1856219 0.3739271 0.06629727)
(0.1908591 0.376607 0.02497562)
(0.1895624 0.3759 0.0359236)
(0.1887718 0.3754832 0.0537549)
(0.1871205 0.374647 0.0665)
(0.1863781 0.3742858 0.08354954)
(0.1916807 0.3770705 0.02590898)
(0.1905848 0.3764549 0.03526202)
(0.1905154 0.3764167 0.04325672)
(0.1903158 0.3763071 0.0445615)
(0.1903572 0.3763298 0.04588903)
(0.1898773 0.376069 0.05424723)
(0.1909437 0.3766541 0.04202878)
(0.1914568 0.376943 0.03438552)
(0.1877791 0.3749751 0.06646051)
(0.1884288 0.3753058 0.06634173)
(0.1875889 0.3748796 0.08351991)
(0.1906366 0.3764836 0.04717311)
(0.1761081 0.3701604 0.22)
(0.1732755 0.3692891 0.09261663)
(0.1726703 0.369117 0.09365371)
(0.1718718 0.3688975 0.09456915)
(0.170902 0.3686421 0.09533305)
(0.1697885 0.3683641 0.09591981)
(0.1820104 0.3723383 0.09362017)
(0.182926 0.3727221 0.0947374)
(0.1814078 0.3720927 0.09245609)
(0.1923139 0.377436 0.02700917)
(0.1915797 0.3770128 0.04092421)
(0.192148 0.3773395 0.03333035)
(0.1927373 0.3776845 0.02823288)
(0.1908591 0.376607 0.05497563)
(0.1912072 0.3768018 0.04848883)
(0.1895624 0.3759 0.06592362)
(0.1887718 0.3754832 0.0837549)
(0.1923948 0.3774832 0.03998618)
(0.1926351 0.3776243 0.03213841)
(0.1921226 0.3773248 0.04974074)
(0.1916807 0.3770705 0.05590899)
(0.1905848 0.3764549 0.06526203)
(0.1905154 0.3764167 0.07325671)
(0.1903158 0.3763071 0.07456149)
(0.1933529 0.3780519 0.03925319)
(0.1929014 0.3777818 0.03085586)
(0.1929361 0.3778024 0.02953291)
(0.1898773 0.376069 0.08424723)
(0.1903572 0.3763298 0.07588903)
(0.1914568 0.376943 0.06438554)
(0.1909437 0.3766541 0.07202877)
(0.1906366 0.3764836 0.07717311)
(0.1923139 0.377436 0.05700919)
(0.192148 0.3773395 0.06333037)
(0.1915797 0.3770128 0.0709242)
(0.1932741 0.3780045 0.05069791)
(0.1927373 0.3776845 0.05823289)
(0.1944105 0.3786999 0.03875722)
(0.1908591 0.376607 0.08497563)
(0.1912072 0.3768018 0.07848882)
(0.1929361 0.3778024 0.05953293)
(0.1926351 0.3776243 0.06213843)
(0.1923948 0.3774832 0.06998617)
(0.1921226 0.3773248 0.07974074)
(0.1916807 0.3770705 0.08590899)
(0.1955163 0.3794007 0.03852027)
(0.1929014 0.3777818 0.06085587)
(0.1933529 0.3780519 0.06925318)
(0.1923139 0.377436 0.08700919)
(0.1927373 0.3776845 0.08823289)
(0.1932741 0.3780045 0.08069791)
(0.1944105 0.3786999 0.06875721)
(0.1945825 0.3788073 0.05129755)
(0.1929361 0.3778024 0.08953293)
(0.1955163 0.3794007 0.06852027)
(0.1959497 0.379682 0.0515)
(0.1945825 0.3788073 0.08129755)
(0.1929014 0.3777818 0.09085587)
(0.1976874 0.3808486 0.03884211)
(0.1966182 0.3801234 0.03854891)
(0.1990014 0.3817734 0.02847248)
(0.1988533 0.3816673 0.0299318)
(0.2012145 0.3834187 4.440892e-16)
(0.1994094 0.3820683 0.02709725)
(0.1989766 0.3817556 0.0313955)
(0.1986751 0.3815403 0.0393896)
(0.1966182 0.3801234 0.06854891)
(0.1969689 0.3803586 0.05138532)
(0.1993615 0.3820336 0.03278138)
(0.2000522 0.3825406 0.02587071)
(0.1959497 0.379682 0.0815)
(0.1995412 0.3821644 0.04016732)
(0.1999842 0.3824902 0.03402437)
(0.2008937 0.3831732 0.02485216)
(0.1976874 0.3808486 0.06884211)
(0.1979466 0.3810281 0.05104272)
(0.1989069 0.3817057 0.05043442)
(0.2002541 0.3826908 0.04114216)
(0.1990014 0.3817734 0.05847248)
(0.1988533 0.3816673 0.0599318)
(0.2008095 0.3831091 0.03506455)
(0.1997368 0.3823077 0.0496036)
(0.1994094 0.3820683 0.05709725)
(0.2018875 0.3839418 0.02409338)
(0.1986752 0.3815403 0.0693896)
(0.1989766 0.3817556 0.0613955)
(0.2007899 0.3830942 0.04227466)
(0.1993615 0.3820336 0.06278138)
(0.2004069 0.3828052 0.04858512)
(0.2000522 0.3825406 0.05587071)
(0.2011307 0.3833543 0.04352059)
(0.2017918 0.3838667 0.03584924)
(0.2012644 0.3834571 0.04483232)
(0.1999842 0.3824902 0.06402437)
(0.1995412 0.3821644 0.07016733)
(0.202977 0.3848123 0.02363526)
(0.2008949 0.383174 0.04741975)
(0.2011844 0.3833955 0.04615267)
(0.2008937 0.3831732 0.05485216)
(0.1979465 0.3810281 0.08104273)
(0.1989069 0.3817056 0.08043444)
(0.1969689 0.3803586 0.08138532)
(0.2002541 0.3826908 0.07114218)
(0.1990014 0.3817734 0.08847249)
(0.1988533 0.3816673 0.0899318)
(0.2008095 0.3831091 0.06506455)
(0.1989766 0.3817556 0.0913955)
(0.1994094 0.3820683 0.08709726)
(0.1997368 0.3823076 0.07960361)
(0.2028755 0.3847299 0.03633625)
(0.2018875 0.3839418 0.05409338)
(0.2040954 0.3857373 0.02350135)
(0.1856219 0.3739271 0.09629727)
(0.1871205 0.374647 0.0965)
(0.1841876 0.3732718 0.09569638)
(0.1926351 0.3776243 0.09213842)
(0.192148 0.3773395 0.09333037)
(0.1914568 0.376943 0.09438554)
(0.1905848 0.3764549 0.09526203)
(0.1895624 0.3759 0.09592361)
(0.1884288 0.3753058 0.09634172)
(0.1877791 0.3749751 0.09646051)
(0.1892255 0.3757211 0.22)
(0.2007899 0.3830942 0.07227467)
(0.2000522 0.3825406 0.08587072)
(0.2004069 0.3828052 0.07858513)
(0.2011307 0.3833543 0.0735206)
(0.2017918 0.3838667 0.06584924)
(0.2012644 0.3834571 0.07483234)
(0.202977 0.3848123 0.05363526)
(0.2039942 0.3856523 0.0365)
(0.2051949 0.3866792 0.02369495)
(0.2008937 0.3831732 0.08485217)
(0.2008949 0.383174 0.07741977)
(0.2011844 0.3833955 0.07615269)
(0.2028755 0.3847299 0.06633625)
(0.2018875 0.3839418 0.08409339)
(0.2040954 0.3857373 0.05350135)
(0.204999 0.3865089 0.03636448)
(0.206224 0.3875911 0.02421023)
(0.202977 0.3848123 0.08363526)
(0.2039942 0.3856523 0.0665)
(0.2051949 0.3866792 0.05369495)
(0.2059549 0.3873498 0.03596035)
(0.2068967 0.3882038 0.03522713)
(0.2066659 0.3879922 0.04418934)
(0.2066435 0.3879716 0.04551413)
(0.2068848 0.3881929 0.04290347)
(0.2040954 0.3857373 0.08350135)
(0.204999 0.3865089 0.06636448)
(0.206224 0.3875911 0.05421023)
(0.206819 0.3881324 0.04681349)
(0.2072876 0.3885661 0.04170694)
(0.2076815 0.3889358 0.03423003)
(0.2082765 0.3895033 0.03301997)
(0.2078551 0.3891002 0.04064584)
(0.2071271 0.3884168 0.05501975)
(0.207182 0.3884677 0.04803437)
(0.2059549 0.3873498 0.06596035)
(0.2051949 0.3866792 0.08369495)
(0.2077146 0.388967 0.04912989)
(0.208561 0.3897787 0.03976227)
(0.2086578 0.389873 0.03165561)
(0.2078633 0.3891079 0.0560803)
(0.2068967 0.3882038 0.06522713)
(0.2066659 0.3879922 0.07418933)
(0.2066435 0.3879716 0.07551413)
(0.2083921 0.3896149 0.05005692)
(0.2068848 0.3881929 0.07290347)
(0.2117301 0.3930317 4.440892e-16)
(0.2071271 0.3884168 0.02501975)
(0.2078633 0.3891079 0.0260803)
(0.2084022 0.3896246 0.02733852)
(0.2087223 0.389936 0.02873401)
(0.2088093 0.3900211 0.03020114)
(0.206224 0.3875911 0.08421022)
(0.206819 0.3881324 0.07681349)
(0.2093734 0.3905795 0.03909285)
(0.2072876 0.3885661 0.07170694)
(0.2076815 0.3889358 0.06423003)
(0.2084022 0.3896246 0.05733852)
(0.2078551 0.3891002 0.07064584)
(0.2082765 0.3895033 0.06301997)
(0.2087223 0.389936 0.05873401)
(0.209184 0.3903908 0.0507774)
(0.207182 0.3884677 0.07803437)
(0.2071271 0.3884168 0.08501974)
(0.2088093 0.3900211 0.06020114)
(0.2102545 0.3914731 0.03866674)
(0.2077146 0.388967 0.07912989)
(0.208561 0.3897787 0.06976227)
(0.2086578 0.389873 0.06165561)
(0.2078633 0.3891079 0.08608029)
(0.2083921 0.3896149 0.08005692)
(0.2111607 0.3924208 0.03850195)
(0.2101531 0.3913689 0.05129811)
(0.2093734 0.3905795 0.06909285)
(0.2084022 0.3896246 0.08733851)
(0.2087223 0.389936 0.08873399)
(0.209184 0.3903908 0.0807774)
(0.2120569 0.3933878 0.03860231)
(0.2088093 0.3900211 0.09020113)
(0.2102545 0.3914731 0.06866673)
(0.2101531 0.3913689 0.08129811)
(0.2129147 0.3943427 0.03896713)
(0.2111608 0.3924208 0.06850195)
(0.2112706 0.3925377 0.0515)
(0.2136967 0.3952393 0.02889288)
(0.2136362 0.395169 0.03021253)
(0.2139306 0.3955126 0.02762405)
(0.204999 0.3865089 0.09636447)
(0.2059549 0.3873498 0.09596035)
(0.2039942 0.3856523 0.0965)
(0.2012145 0.3834187 0.22)
(0.2028755 0.3847299 0.09633625)
(0.2017918 0.3838667 0.09584925)
(0.2008095 0.3831091 0.09506455)
(0.1999842 0.3824902 0.09402438)
(0.1993615 0.3820336 0.09278138)
(0.2143251 0.3959789 0.02645493)
(0.2136939 0.395236 0.03958184)
(0.2137532 0.3953051 0.03152156)
(0.2140403 0.3956416 0.03276374)
(0.2119723 0.3932952 0.05141877)
(0.212653 0.3940482 0.05117493)
(0.2120569 0.3933878 0.06860231)
(0.2086578 0.389873 0.0916556)
(0.2112706 0.3925377 0.0815)
(0.2148611 0.3966236 0.02543097)
(0.214364 0.3960252 0.040419)
(0.2144827 0.3961671 0.03389127)
(0.2155133 0.3974261 0.02459313)
(0.2129147 0.3943427 0.06896713)
(0.2134604 0.3949656 0.05063604)
(0.2136967 0.3952393 0.05889288)
(0.2136362 0.395169 0.06021253)
(0.2141673 0.3957915 0.04986517)
(0.2139306 0.3955126 0.05762405)
(0.2149022 0.3966737 0.04144315)
(0.215059 0.3968651 0.03485995)
(0.2147488 0.3964875 0.04889556)
(0.2143251 0.3959789 0.05645493)
(0.2162513 0.3983593 0.02397639)
(0.2137532 0.3953051 0.06152156)
(0.2136939 0.3952361 0.06958184)
(0.2140403 0.3956416 0.06276374)
(0.2152918 0.3971514 0.04261335)
(0.2158237 0.3978153 0.03570238)
(0.2155205 0.3974352 0.04388464)
(0.2151865 0.3970215 0.04776658)
(0.2148611 0.3966236 0.05543096)
(0.2155798 0.3975092 0.04520892)
(0.214364 0.3960252 0.070419)
(0.2144827 0.3961671 0.06389127)
(0.2155133 0.3974262 0.05459313)
(0.2154667 0.3973681 0.04652204)
(0.212653 0.3940482 0.08117493)
(0.2134604 0.3949656 0.08063604)
(0.2119723 0.3932952 0.08141877)
(0.2136967 0.3952393 0.08889288)
(0.2136362 0.395169 0.09021254)
(0.2141673 0.3957915 0.07986517)
(0.2139306 0.3955126 0.08762406)
(0.2149022 0.3966737 0.07144316)
(0.215059 0.3968651 0.06485995)
(0.2137532 0.3953051 0.09152157)
(0.2143251 0.3959789 0.08645493)
(0.2147488 0.3964875 0.07889556)
(0.2162513 0.3983593 0.05397639)
(0.2167743 0.3990373 0.03629844)
(0.2152918 0.3971514 0.07261336)
(0.2158237 0.3978153 0.06570238)
(0.2155205 0.3974352 0.07388465)
(0.2148611 0.3966236 0.08543097)
(0.2151865 0.3970215 0.07776659)
(0.2155798 0.3975092 0.07520893)
(0.2170401 0.3993876 0.05360752)
(0.2177623 0.4003585 0.0365)
(0.2155133 0.3974261 0.08459314)
(0.2154667 0.3973681 0.07652204)
(0.2170401 0.3993876 0.02360752)
(0.2178403 0.4004652 0.02350127)
(0.2186267 0.4015606 0.02366036)
(0.2204699 0.4042836 4.440892e-16)
(0.2193686 0.4026292 0.02408278)
(0.2182897 0.4010866 0.03644123)
(0.2178403 0.4004652 0.05350127)
(0.2162513 0.3983593 0.08397639)
(0.2167743 0.3990373 0.06629844)
(0.2200324 0.4036161 0.02475039)
(0.2188051 0.4018143 0.03626429)
(0.2186267 0.4015606 0.05366036)
(0.2170401 0.3993875 0.08360752)
(0.2177623 0.4003585 0.0665)
(0.2205936 0.4044748 0.02563336)
(0.2195313 0.4028683 0.03578263)
(0.2193686 0.4026292 0.05408278)
(0.2199282 0.4034592 0.04360158)
(0.2198405 0.4033277 0.04491233)
(0.220173 0.4038291 0.03506201)
(0.2182897 0.4010866 0.06644123)
(0.2178403 0.4004652 0.08350127)
(0.2199079 0.4034286 0.04622792)
(0.2201649 0.4038168 0.04235301)
(0.2210346 0.405166 0.02669468)
(0.2207075 0.4046519 0.03413417)
(0.2205376 0.404388 0.04121448)
(0.2213425 0.4056577 0.02789245)
(0.2200324 0.4036161 0.0547504)
(0.2201257 0.4037574 0.04748854)
(0.2188051 0.4018143 0.06626429)
(0.2186267 0.4015606 0.08366036)
(0.2204821 0.4043023 0.04864545)
(0.2215084 0.4059257 0.02918126)
(0.2211184 0.4052991 0.03303737)
(0.221394 0.4057406 0.03181439)
(0.2210275 0.4051547 0.04023025)
(0.2205936 0.4044748 0.05563337)
(0.2210182 0.40514 0.04975436)
(0.2193686 0.4026292 0.08408278)
(0.2195313 0.4028683 0.06578263)
(0.2215259 0.4059541 0.03051127)
(0.2216108 0.4060922 0.03943966)
(0.220173 0.4038291 0.06506201)
(0.2199282 0.4034592 0.07360157)
(0.2198405 0.4033277 0.07491232)
(0.2199079 0.4034286 0.07622791)
(0.2082765 0.3895033 0.09301995)
(0.2076815 0.3889358 0.09423002)
(0.2068967 0.3882038 0.09522712)
(0.2158237 0.3978153 0.09570238)
(0.2167743 0.3990373 0.09629844)
(0.2117301 0.3930317 0.22)
(0.215059 0.3968651 0.09485995)
(0.2144827 0.3961671 0.09389127)
(0.2140403 0.3956416 0.09276375)
(0.2201649 0.4038168 0.072353)
(0.2210346 0.405166 0.05669469)
(0.2207075 0.4046519 0.06413417)
(0.2205376 0.404388 0.07121447)
(0.2213425 0.4056577 0.05789246)
(0.2222596 0.4071683 0.03887563)
(0.2201257 0.4037574 0.07748854)
(0.2200324 0.4036161 0.08475039)
(0.2217483 0.4063173 0.05070429)
(0.2204821 0.4043023 0.07864545)
(0.2215084 0.4059257 0.05918127)
(0.2211184 0.4052991 0.06303738)
(0.221394 0.4057406 0.0618144)
(0.2210275 0.4051547 0.07023025)
(0.2215259 0.4059541 0.06051127)
(0.2205936 0.4044748 0.08563336)
(0.2229426 0.4083422 0.03856259)
(0.2210182 0.40514 0.07975436)
(0.2216108 0.4060922 0.06943966)
(0.2210346 0.405166 0.08669467)
(0.2236257 0.4095617 0.03851278)
(0.2213425 0.4056577 0.08789244)
(0.2222596 0.4071683 0.06887562)
(0.2225678 0.4076926 0.05129885)
(0.2217483 0.4063173 0.08070428)
(0.2215084 0.4059257 0.08918125)
(0.2215259 0.4059541 0.09051126)
(0.2234146 0.4091796 0.0515)
(0.2229426 0.4083422 0.06856259)
(0.2225678 0.4076926 0.08129885)
(0.2242854 0.4107867 0.03872627)
(0.2253247 0.4128221 0.0280336)
(0.2251876 0.4125457 0.02946729)
(0.2236257 0.4095617 0.06851278)
(0.2238127 0.409904 0.05145415)
(0.2252096 0.4125899 0.03093208)
(0.224899 0.4119718 0.03919881)
(0.2234146 0.4091796 0.0815)
(0.225389 0.4129528 0.03234524)
(0.2254395 0.4130557 0.03991014)
(0.2257124 0.4136182 0.03363773)
(0.2242854 0.4107867 0.06872627)