/*--------------------------------*- C++ -*----------------------------------*\
  =========                 |
  \\      /  F ield         | OpenFOAM: The Open Source CFD Toolbox
   \\    /   O peration     | Website:  https://openfoam.org
    \\  /    A nd           | Version:  7
     \\/     M anipulation  |
\*---------------------------------------------------------------------------*/
FoamFile
{
    version     2.0;
    format      ascii;
    class       extendedFeatureEdgeMesh;
    location    "constant/extendedFeatureEdgeMesh";
    object      outlet.extendedFeatureEdgeMesh;
}
// * * * * * * * * * * * * * * * * * * * * * * * * * * * * * * * * * * * * * //

// points

70
(
(2.3 0.3071729 0.1397179)
(2.3 0.3 0.14004)
(2.3 0.3142881 0.138754)
(2.3 0.3212883 0.1371563)
(2.3 0.328117 0.1349375)
(2.3 0.3347194 0.1321155)
(2.3 0.3410422 0.1287131)
(2.3 0.3470346 0.1247575)
(2.3 0.357838 0.1153188)
(2.3 0.3526483 0.1202808)
(2.3 0.3667826 0.1041028)
(2.3 0.3625622 0.1099117)
(2.3 0.3704653 0.09793897)
(2.3 0.3735806 0.09146986)
(2.3 0.3761035 0.08474754)
(2.3 0.3780137 0.07782613)
(2.3 0.3792958 0.07076135)
(2.3 0.3799394 0.06361008)
(2.3 0.3799394 0.05642992)
(2.3 0.3792958 0.04927865)
(2.3 0.3780137 0.04221387)
(2.3 0.3761035 0.03529246)
(2.3 0.3735806 0.02857014)
(2.3 0.3704653 0.02210103)
(2.3 0.3667826 0.01593722)
(2.3 0.3625622 0.01012835)
(2.3 0.357838 0.004721167)
(2.3 0.3526483 -0.0002407787)
(2.3 0.3470346 -0.00471754)
(2.3 0.3410422 -0.008673072)
(2.3 0.3347194 -0.01207553)
(2.3 0.328117 -0.01489751)
(2.3 0.3212883 -0.01711631)
(2.3 0.3142881 -0.01871405)
(2.3 0.3071729 -0.01967786)
(2.3 0.3 -0.02)
(2.3 0.2928271 -0.01967786)
(2.3 0.2857119 -0.01871405)
(2.3 0.2787117 -0.01711631)
(2.3 0.271883 -0.01489751)
(2.3 0.2652806 -0.01207553)
(2.3 0.2589578 -0.008673072)
(2.3 0.2529654 -0.00471754)
(2.3 0.2473517 -0.0002407787)
(2.3 0.242162 0.004721167)
(2.3 0.2374378 0.01012835)
(2.3 0.2332174 0.01593722)
(2.3 0.2295347 0.02210103)
(2.3 0.2264194 0.02857014)
(2.3 0.2238965 0.03529246)
(2.3 0.2219863 0.04221387)
(2.3 0.2207042 0.04927865)
(2.3 0.2200606 0.05642992)
(2.3 0.2200606 0.06361008)
(2.3 0.2207042 0.07076135)
(2.3 0.2219863 0.07782613)
(2.3 0.2238965 0.08474754)
(2.3 0.2264194 0.09146986)
(2.3 0.2295347 0.09793897)
(2.3 0.2332174 0.1041028)
(2.3 0.2374378 0.1099117)
(2.3 0.242162 0.1153188)
(2.3 0.2473517 0.1202808)
(2.3 0.2529654 0.1247575)
(2.3 0.2589578 0.1287131)
(2.3 0.2652806 0.1321155)
(2.3 0.271883 0.1349375)
(2.3 0.2787117 0.1371563)
(2.3 0.2857119 0.138754)
(2.3 0.2928271 0.1397179)
)

// edges

70
(
(0 1)
(2 0)
(3 2)
(4 3)
(5 4)
(6 5)
(7 6)
(8 9)
(9 7)
(10 11)
(11 8)
(12 10)
(13 12)
(14 13)
(15 14)
(16 15)
(17 16)
(18 17)
(19 18)
(20 19)
(21 20)
(22 21)
(23 22)
(24 23)
(25 24)
(26 25)
(27 26)
(28 27)
(29 28)
(30 29)
(31 30)
(32 31)
(33 32)
(34 33)
(35 34)
(36 35)
(37 36)
(38 37)
(39 38)
(40 39)
(41 40)
(42 41)
(43 42)
(44 43)
(45 44)
(46 45)
(47 46)
(48 47)
(49 48)
(50 49)
(51 50)
(52 51)
(53 52)
(54 53)
(55 54)
(56 55)
(57 56)
(58 57)
(59 58)
(60 59)
(61 60)
(62 61)
(63 62)
(64 63)
(65 64)
(66 65)
(67 66)
(68 67)
(69 68)
(1 69)
)

// concaveStart mixedStart nonFeatureStart
0 0 0
// internalStart flatStart openStart multipleStart
0 0 0 70
// normals
68{(1 0 0)}
// normal volume types

68
(
0
0
0
0
0
0
0
0
0
0
0
0
0
0
0
0
0
0
0
0
0
0
0
0
0
0
0
0
0
0
0
0
0
0
0
0
0
0
0
0
0
0
0
0
0
0
0
0
0
0
0
0
0
0
0
0
0
0
0
0
0
0
0
0
0
0
0
0
)

// normalDirections

70
(
1(1)
1(1)
1(1)
1(1)
1(1)
1(1)
1(1)
1(1)
1(1)
1(1)
1(1)
1(1)
1(1)
1(1)
1(1)
1(1)
1(1)
1(1)
1(1)
1(1)
1(1)
1(1)
1(1)
1(1)
1(1)
1(1)
1(1)
1(1)
1(1)
1(1)
1(1)
1(1)
1(1)
1(1)
1(1)
1(1)
1(1)
1(1)
1(1)
1(1)
1(1)
1(1)
1(1)
1(1)
1(1)
1(1)
1(1)
1(1)
1(1)
1(1)
1(1)
1(1)
1(1)
1(1)
1(1)
1(1)
1(1)
1(1)
1(1)
1(1)
1(1)
1(1)
1(1)
1(1)
1(1)
1(1)
1(1)
1(1)
1(1)
1(1)
)

// edgeNormals

70
(
1(0)
1(1)
1(2)
1(3)
1(4)
1(5)
1(6)
1(7)
1(7)
1(8)
1(8)
1(9)
1(10)
1(11)
1(12)
1(13)
1(14)
1(15)
1(16)
1(17)
1(18)
1(19)
1(20)
1(21)
1(22)
1(23)
1(24)
1(25)
1(26)
1(27)
1(28)
1(29)
1(30)
1(31)
1(32)
1(33)
1(34)
1(35)
1(36)
1(37)
1(38)
1(39)
1(40)
1(41)
1(42)
1(43)
1(44)
1(45)
1(46)
1(47)
1(48)
1(49)
1(50)
1(51)
1(52)
1(53)
1(54)
1(55)
1(56)
1(57)
1(58)
1(59)
1(60)
1(61)
1(62)
1(63)
1(64)
1(65)
1(66)
1(67)
)

// featurePointNormals
0()
// featurePointEdges
0()
// regionEdges

70
(
0
1
2
3
4
5
6
7
8
9
10
11
12
13
14
15
16
17
18
19
20
21
22
23
24
25
26
27
28
29
30
31
32
33
34
35
36
37
38
39
40
41
42
43
44
45
46
47
48
49
50
51
52
53
54
55
56
57
58
59
60
61
62
63
64
65
66
67
68
69
)



// ************************************************************************* //
