/*--------------------------------*- C++ -*----------------------------------*\
  =========                 |
  \\      /  F ield         | OpenFOAM: The Open Source CFD Toolbox
   \\    /   O peration     | Website:  https://openfoam.org
    \\  /    A nd           | Version:  7
     \\/     M anipulation  |
\*---------------------------------------------------------------------------*/
FoamFile
{
    version     2.0;
    format      ascii;
    class       extendedFeatureEdgeMesh;
    location    "constant/extendedFeatureEdgeMesh";
    object      pipe2.extendedFeatureEdgeMesh;
}
// * * * * * * * * * * * * * * * * * * * * * * * * * * * * * * * * * * * * * //

// points

52
(
(2.3 0.3 0.14004)
(2.3 0.31915 0.1377148)
(0.6 0.31915 0.1577148)
(0.6 0.3 0.16004)
(2.3 0.3371871 0.1308742)
(0.6 0.3371871 0.1508742)
(0.6 0.3530631 0.1399158)
(2.3 0.3530631 0.1199158)
(2.3 0.3658552 0.1054765)
(0.6 0.3658552 0.1254765)
(0.6 0.37482 0.1083955)
(2.3 0.37482 0.08839548)
(2.3 0.3794366 0.06966535)
(0.6 0.3794366 0.08966535)
(0.6 0.3794366 0.07037465)
(2.3 0.3794366 0.05037465)
(2.3 0.37482 0.03164452)
(0.6 0.37482 0.05164452)
(0.6 0.3658552 0.03456346)
(2.3 0.3658552 0.01456346)
(0.6 0.3530631 0.02012417)
(2.3 0.3530631 0.0001241699)
(0.6 0.3371871 0.009165809)
(2.3 0.3371871 -0.01083419)
(2.3 0.31915 -0.01767476)
(0.6 0.31915 0.002325236)
(2.3 0.3 -0.02)
(0.6 0.3 -6.938894e-18)
(0.6 0.28085 0.002325236)
(2.3 0.28085 -0.01767476)
(0.6 0.2628129 0.009165809)
(2.3 0.2628129 -0.01083419)
(0.6 0.2469369 0.02012417)
(2.3 0.2469369 0.0001241699)
(0.6 0.2341448 0.03456346)
(2.3 0.2341448 0.01456346)
(0.6 0.22518 0.05164452)
(2.3 0.22518 0.03164452)
(0.6 0.2205634 0.07037465)
(2.3 0.2205634 0.05037465)
(0.6 0.2205634 0.08966535)
(2.3 0.2205634 0.06966535)
(0.6 0.22518 0.1083955)
(2.3 0.22518 0.08839548)
(0.6 0.2341448 0.1254765)
(2.3 0.2341448 0.1054765)
(0.6 0.2469369 0.1399158)
(2.3 0.2469369 0.1199158)
(0.6 0.2628129 0.1508742)
(2.3 0.2628129 0.1308742)
(0.6 0.28085 0.1577148)
(2.3 0.28085 0.1377148)
)

// edges

52
(
(0 1)
(2 3)
(1 4)
(5 2)
(6 5)
(4 7)
(7 8)
(9 6)
(10 9)
(8 11)
(11 12)
(13 10)
(14 13)
(12 15)
(15 16)
(17 14)
(18 17)
(16 19)
(20 18)
(19 21)
(22 20)
(21 23)
(23 24)
(25 22)
(24 26)
(27 25)
(28 27)
(26 29)
(30 28)
(29 31)
(32 30)
(31 33)
(34 32)
(33 35)
(36 34)
(35 37)
(38 36)
(37 39)
(40 38)
(39 41)
(42 40)
(41 43)
(44 42)
(43 45)
(46 44)
(45 47)
(48 46)
(47 49)
(50 48)
(49 51)
(3 50)
(51 0)
)

// concaveStart mixedStart nonFeatureStart
0 0 0
// internalStart flatStart openStart multipleStart
0 0 0 52
// normals

52
(
(0.01167814 0.1205265 0.9926414)
(0.01167813 0.1205273 0.9926413)
(0.01099952 0.3545847 0.9349592)
(0.01099952 0.3545847 0.9349592)
(0.009681709 0.568038 0.8229454)
(0.009681709 0.568038 0.8229454)
(0.007801197 0.7484886 0.6631018)
(0.007801197 0.7484886 0.6631018)
(0.005467262 0.8854426 0.4647166)
(0.005467246 0.8854429 0.464716)
(0.002815504 0.9709373 0.2393175)
(0.002815497 0.9709374 0.2393172)
(0 1 0)
(0 1 -0)
(-0.0028155 0.9709373 -0.2393174)
(-0.002815499 0.9709373 -0.2393174)
(-0.005467238 0.8854433 -0.4647152)
(-0.005467238 0.8854433 -0.4647152)
(-0.007801202 0.7484883 -0.6631021)
(-0.007801201 0.7484883 -0.6631021)
(-0.009681722 0.5680365 -0.8229464)
(-0.009681724 0.5680364 -0.8229465)
(-0.01099953 0.3545833 -0.9349597)
(-0.01099952 0.3545834 -0.9349597)
(-0.01167813 0.1205289 -0.9926411)
(-0.01167813 0.1205288 -0.9926411)
(-0.01167813 -0.1205286 -0.9926412)
(-0.01167813 -0.1205287 -0.9926411)
(-0.01099952 -0.3545839 -0.9349595)
(-0.01099952 -0.3545838 -0.9349595)
(-0.009681726 -0.5680362 -0.8229467)
(-0.009681726 -0.5680361 -0.8229467)
(-0.007801207 -0.7484879 -0.6631025)
(-0.007801207 -0.7484879 -0.6631025)
(-0.005467238 -0.8854433 -0.4647152)
(-0.005467238 -0.8854433 -0.4647152)
(-0.002815491 -0.9709375 -0.2393167)
(-0.002815491 -0.9709375 -0.2393167)
(0 -1 0)
(-0 -1 -0)
(0.002815492 -0.9709375 0.2393165)
(0.002815492 -0.9709375 0.2393168)
(0.005467254 -0.8854426 0.4647166)
(0.005467254 -0.8854429 0.464716)
(0.007801202 -0.7484882 0.6631023)
(0.007801202 -0.7484882 0.6631023)
(0.009681712 -0.5680376 0.8229457)
(0.009681712 -0.5680376 0.8229457)
(0.01099952 -0.3545852 0.934959)
(0.01099952 -0.3545852 0.934959)
(0.01167814 -0.1205271 0.9926413)
(0.01167813 -0.1205264 0.9926414)
)

// normal volume types

52
(
0
0
0
0
0
0
0
0
0
0
0
0
0
0
0
0
0
0
0
0
0
0
0
0
0
0
0
0
0
0
0
0
0
0
0
0
0
0
0
0
0
0
0
0
0
0
0
0
0
0
0
0
)

// normalDirections

52
(
1(1)
1(1)
1(1)
1(1)
1(1)
1(1)
1(1)
1(1)
1(1)
1(1)
1(1)
1(1)
1(1)
1(1)
1(1)
1(1)
1(1)
1(1)
1(1)
1(1)
1(1)
1(1)
1(1)
1(1)
1(1)
1(1)
1(1)
1(1)
1(1)
1(1)
1(1)
1(1)
1(1)
1(1)
1(1)
1(1)
1(1)
1(1)
1(1)
1(1)
1(1)
1(1)
1(1)
1(1)
1(1)
1(1)
1(1)
1(1)
1(1)
1(1)
1(1)
1(1)
)

// edgeNormals

52
(
1(0)
1(1)
1(2)
1(3)
1(4)
1(5)
1(6)
1(7)
1(8)
1(9)
1(10)
1(11)
1(12)
1(13)
1(14)
1(15)
1(16)
1(17)
1(18)
1(19)
1(20)
1(21)
1(22)
1(23)
1(24)
1(25)
1(26)
1(27)
1(28)
1(29)
1(30)
1(31)
1(32)
1(33)
1(34)
1(35)
1(36)
1(37)
1(38)
1(39)
1(40)
1(41)
1(42)
1(43)
1(44)
1(45)
1(46)
1(47)
1(48)
1(49)
1(50)
1(51)
)

// featurePointNormals
0()
// featurePointEdges
0()
// regionEdges

52
(
0
1
2
3
4
5
6
7
8
9
10
11
12
13
14
15
16
17
18
19
20
21
22
23
24
25
26
27
28
29
30
31
32
33
34
35
36
37
38
39
40
41
42
43
44
45
46
47
48
49
50
51
)



// ************************************************************************* //
