/*--------------------------------*- C++ -*----------------------------------*\
  =========                 |
  \\      /  F ield         | OpenFOAM: The Open Source CFD Toolbox
   \\    /   O peration     | Website:  https://openfoam.org
    \\  /    A nd           | Version:  7
     \\/     M anipulation  |
\*---------------------------------------------------------------------------*/
FoamFile
{
    version     2.0;
    format      ascii;
    class       extendedFeatureEdgeMesh;
    location    "constant/extendedFeatureEdgeMesh";
    object      pipe1.extendedFeatureEdgeMesh;
}
// * * * * * * * * * * * * * * * * * * * * * * * * * * * * * * * * * * * * * //

// points

52
(
(-0.5 0.3079058 0.8320751)
(-0.5 0.3 0.833035)
(-0.5 0.3153521 0.829251)
(-0.5 0.3219063 0.8247271)
(-0.5 0.3271873 0.818766)
(-0.5 0.3308883 0.8117144)
(-0.5 0.3327941 0.8039819)
(-0.5 0.3327941 0.7960181)
(-0.5 0.3308883 0.7882856)
(-0.5 0.3271873 0.781234)
(-0.5 0.3219063 0.7752729)
(-0.5 0.3153521 0.770749)
(-0.5 0.3079058 0.7679249)
(-0.5 0.3 0.766965)
(-0.5 0.2920942 0.7679249)
(-0.5 0.2846479 0.770749)
(-0.5 0.2780937 0.7752729)
(-0.5 0.2728127 0.781234)
(-0.5 0.2691117 0.7882856)
(-0.5 0.2672059 0.7960181)
(-0.5 0.2672059 0.8039819)
(-0.5 0.2691117 0.8117144)
(-0.5 0.2728127 0.818766)
(-0.5 0.2780937 0.8247271)
(-0.5 0.2846479 0.829251)
(-0.5 0.2920942 0.8320751)
(0.333035 0.3 0.6)
(0.3320751 0.3079058 0.6)
(0.329251 0.3153521 0.6)
(0.3247271 0.3219063 0.6)
(0.318766 0.3271873 0.6)
(0.3117144 0.3308883 0.6)
(0.3039819 0.3327941 0.6)
(0.2960181 0.3327941 0.6)
(0.2882856 0.3308883 0.6)
(0.281234 0.3271873 0.6)
(0.2752729 0.3219063 0.6)
(0.270749 0.3153521 0.6)
(0.2679249 0.3079058 0.6)
(0.266965 0.3 0.6)
(0.2679249 0.2920942 0.6)
(0.270749 0.2846479 0.6)
(0.2752729 0.2780937 0.6)
(0.281234 0.2728127 0.6)
(0.2882856 0.2691117 0.6)
(0.2960181 0.2672059 0.6)
(0.3039819 0.2672059 0.6)
(0.3117144 0.2691117 0.6)
(0.318766 0.2728127 0.6)
(0.3247271 0.2780937 0.6)
(0.329251 0.2846479 0.6)
(0.3320751 0.2920942 0.6)
)

// edges

52
(
(0 1)
(2 0)
(3 2)
(4 3)
(5 4)
(6 5)
(7 6)
(8 7)
(9 8)
(10 9)
(11 10)
(12 11)
(13 12)
(14 13)
(15 14)
(16 15)
(17 16)
(18 17)
(19 18)
(20 19)
(21 20)
(22 21)
(23 22)
(24 23)
(25 24)
(1 25)
(26 27)
(27 28)
(28 29)
(29 30)
(30 31)
(31 32)
(32 33)
(33 34)
(34 35)
(35 36)
(36 37)
(37 38)
(38 39)
(39 40)
(40 41)
(41 42)
(42 43)
(43 44)
(44 45)
(45 46)
(46 47)
(47 48)
(48 49)
(49 50)
(50 51)
(51 26)
)

// concaveStart mixedStart nonFeatureStart
0 0 0
// internalStart flatStart openStart multipleStart
0 0 0 52
// normals

52
(
(0 0.120529 0.9927098)
(0 0.3546171 0.9350116)
(0 0.5680516 0.822993)
(0 0.7485164 0.6631163)
(0 0.8854538 0.4647274)
(0 0.9709446 0.2393046)
(0 1 0)
(0 0.9709446 -0.2393046)
(0 0.8854538 -0.4647274)
(0 0.7485164 -0.6631163)
(0 0.5680566 -0.8229895)
(0 0.3546106 -0.9350141)
(0 0.1205363 -0.9927089)
(0 -0.1205359 -0.992709)
(0 -0.3546118 -0.9350136)
(0 -0.5680549 -0.8229907)
(0 -0.7485164 -0.6631163)
(0 -0.8854538 -0.4647274)
(0 -0.9709446 -0.2393046)
(0 -1 0)
(0 -0.9709446 0.2393046)
(0 -0.8854538 0.4647274)
(0 -0.7485164 0.6631163)
(0 -0.5680498 0.8229942)
(0 -0.3546184 0.9350111)
(0 -0.1205285 0.9927099)
(0.9927094 0.1205326 0)
(0.9350128 0.3546138 0)
(0.8229912 0.5680541 0)
(0.6631182 0.7485147 0)
(0.4647274 0.8854538 0)
(0.2393046 0.9709446 0)
(0 1 0)
(-0.2393054 0.9709443 0)
(-0.4647259 0.8854546 0)
(-0.6631182 0.7485147 0)
(-0.8229912 0.5680541 0)
(-0.9350128 0.3546138 0)
(-0.9927094 0.1205326 0)
(-0.9927094 -0.1205322 -0)
(-0.9350124 -0.3546151 -0)
(-0.8229924 -0.5680524 -0)
(-0.6631182 -0.7485147 -0)
(-0.4647259 -0.8854546 -0)
(-0.2393054 -0.9709443 -0)
(0 -1 -0)
(0.2393046 -0.9709446 0)
(0.4647274 -0.8854538 0)
(0.6631182 -0.7485147 0)
(0.8229924 -0.5680524 0)
(0.9350124 -0.3546151 0)
(0.9927094 -0.1205322 0)
)

// normal volume types

52
(
0
0
0
0
0
0
0
0
0
0
0
0
0
0
0
0
0
0
0
0
0
0
0
0
0
0
0
0
0
0
0
0
0
0
0
0
0
0
0
0
0
0
0
0
0
0
0
0
0
0
0
0
)

// normalDirections

52
(
1(1)
1(1)
1(1)
1(1)
1(1)
1(1)
1(1)
1(1)
1(1)
1(1)
1(1)
1(1)
1(1)
1(1)
1(1)
1(1)
1(1)
1(1)
1(1)
1(1)
1(1)
1(1)
1(1)
1(1)
1(1)
1(1)
1(1)
1(1)
1(1)
1(1)
1(1)
1(1)
1(1)
1(1)
1(1)
1(1)
1(1)
1(1)
1(1)
1(1)
1(1)
1(1)
1(1)
1(1)
1(1)
1(1)
1(1)
1(1)
1(1)
1(1)
1(1)
1(1)
)

// edgeNormals

52
(
1(0)
1(1)
1(2)
1(3)
1(4)
1(5)
1(6)
1(7)
1(8)
1(9)
1(10)
1(11)
1(12)
1(13)
1(14)
1(15)
1(16)
1(17)
1(18)
1(19)
1(20)
1(21)
1(22)
1(23)
1(24)
1(25)
1(26)
1(27)
1(28)
1(29)
1(30)
1(31)
1(32)
1(33)
1(34)
1(35)
1(36)
1(37)
1(38)
1(39)
1(40)
1(41)
1(42)
1(43)
1(44)
1(45)
1(46)
1(47)
1(48)
1(49)
1(50)
1(51)
)

// featurePointNormals
0()
// featurePointEdges
0()
// regionEdges

52
(
0
1
2
3
4
5
6
7
8
9
10
11
12
13
14
15
16
17
18
19
20
21
22
23
24
25
26
27
28
29
30
31
32
33
34
35
36
37
38
39
40
41
42
43
44
45
46
47
48
49
50
51
)



// ************************************************************************* //
